121
 energy: -174.094919703650 gnorm: 0.000123793715 xtb: 6.6.0 (83090be673e2468c27fcd74d519548d8d51bd8df)
Ca           0.66920922116343       -2.88812622682442        0.16494167237934
C           -1.31444357582799        1.03076278497176        2.17931718833882
C           -0.48651496481102        0.05959985806534        1.54900750271468
N            0.19131762925306       -0.71221109413469        1.04389690433337
H           -0.69341439900457        1.81726487504815        2.61220780796966
H           -1.90300288206383        0.55818638241226        2.96628896552980
H           -1.98779078721885        1.46957016621643        1.44534115509967
C            2.02829383565782       -7.14419556483139        2.03981235084733
C            1.72332420825092       -5.91480046303524        1.37775249071870
N            1.49103441957408       -4.93197869281457        0.84327386565175
H            2.99445084178489       -7.51517555136330        1.69903041058460
H            1.25941130448861       -7.88252472468977        1.81465325495584
H            2.06439008499019       -6.97812095074193        3.11593151871220
C            2.55402965033543        0.49241841451777       -1.37293718670813
C            1.79663991129203        0.88422235147851       -2.51558700533672
N            1.19479102732651        1.20615849557792       -3.43734396670292
H            2.19790772134522       -0.47552379935966       -1.01356610856259
H            2.43746505324915        1.23646747784926       -0.58599408262082
H            3.60775217193141        0.42166479947211       -1.64566439414690
C           -3.64311173877551       -3.06425895832233        2.35988473764797
C           -2.46310680711176       -3.12527396527363        1.56702124130335
N           -1.51479457359165       -3.17180295516749        0.92792731194912
H           -3.58811039065939       -2.19814459200025        3.02171238870193
H           -3.73294556342031       -3.97016151146846        2.95747476327208
H           -4.51674872010997       -2.97114489457817        1.71269570305025
C           -1.61167756700772       -0.60459737897054       -3.57621170806146
C           -0.92622705037123       -1.18585739888507       -2.47411585024321
N           -0.36156503181267       -1.65066417106668       -1.59311915022868
H           -2.55436500445619       -0.17278724428753       -3.23869560409195
H           -1.80558726476427       -1.36703664867098       -4.33120256750265
H           -0.98276131865959        0.17893404266519       -3.99937541580391
C            1.76518634671014        5.61289581322810        3.88765583832498
C            1.10480076742538        4.39246760176289        3.54943795591710
N            0.57537358163909        3.41451197136033        3.27551613798173
H            1.10628313244696        6.45401091871713        3.67493360931407
H            2.67587582791572        5.70933087696717        3.29438823877913
H            2.01910768483805        5.61101625855150        4.94678947189725
C           -5.30119238921479        0.90064935393566        5.34898893510655
C           -4.21169676913157        0.13848768137588        4.84260519639477
N           -3.33321411325829       -0.47065061095841        4.42634587702406
H           -5.15886854758856        1.08412667674398        6.41328909317351
H           -6.23276911906351        0.35745811534150        5.19499836926093
H           -5.34447908222647        1.85526731775375        4.82024940622150
C           -6.25611284764862        2.08577566836918       -1.14170102209218
C           -5.21339892869704        1.38863395217065       -1.82956541764902
N           -4.37624425878667        0.82973439869105       -2.37502366396034
H           -5.94288671460887        3.11154004323595       -0.95017436282422
H           -6.46150658871984        1.58880491753303       -0.19427846107767
H           -7.15771590891668        2.09207732412770       -1.75320700686796
C            8.16136112503421        1.45198588159348       -1.69529392165410
C            6.86096722603822        0.90685030628904       -1.93840144924343
N            5.82139902333846        0.46888211495245       -2.13311720349832
H            8.87758604611237        1.01296970945486       -2.38907034840890
H            8.46246984845081        1.22789716521655       -0.67263342503376
H            8.13488212272640        2.53190003844313       -1.83678321729276
C            5.15644207736768        7.23716366046371       -0.21660911448906
C            4.77657469706118        6.54486677540219        0.96980364536417
N            4.47095215106122        5.98829768259563        1.92450960046119
H            5.00424673658175        6.58951343978884       -1.08181500663535
H            6.20721199912842        7.51776729901201       -0.15474676980250
H            4.54893392301531        8.13485243977085       -0.32567787703545
C           -0.25825397760906       -1.68820380479042        5.00171328427963
C            0.21172380332726       -2.42982632618207        3.87478736857850
N            0.58875698918446       -3.03355400180702        2.97823954405665
H            0.38393420133208       -0.82303321114533        5.16105345098007
H           -0.24443555524648       -2.31781899636275        5.89066940874794
H           -1.27859083662701       -1.34961256584278        4.81683379805628
C           -4.62658166992703        6.11929297804014        3.01792635668085
C           -4.97962846217538        4.79468641887366        3.41405589865997
N           -5.25993337340031        3.72891126625376        3.72820362562397
H           -5.52436962833600        6.67129136390200        2.74261965622345
H           -3.95128994858830        6.07303811844530        2.16217357172858
H           -4.12941500309281        6.62555735429573        3.84430063607398
C            6.07661702122966        3.68994170911575        3.76295018932731
C            5.78243022658604        2.38393034943302        3.26456382327041
N            5.54868509382678        1.33556301743874        2.86730059554402
H            5.78635813963140        3.75344585135972        4.81080321697581
H            5.52318318107811        4.43193062253635        3.18505053106251
H            7.14461744548161        3.88442019689506        3.67202175181309
C            4.35425385554556        4.51667737670045       -5.31135549055566
C            4.56463081829548        5.04263453675834       -3.99920477914429
N            4.73363708695842        5.46669594016151       -2.94882182823626
H            4.62714603491130        3.46242607469479       -5.32838777898470
H            4.96923482950754        5.06460888547218       -6.02464242714237
H            3.30393887256200        4.62242028934318       -5.57998860175714
C           -2.31047470259515       -4.92516727590058       -3.12355439060390
C           -1.25834164657438       -4.74215277572643       -2.17598137946580
N           -0.41124073913894       -4.60343133994746       -1.41940607383090
H           -2.37493107497327       -5.97433451292910       -3.40929642273625
H           -2.11126177214030       -4.32106503791163       -4.01003078292916
H           -3.25426260200682       -4.61093387720337       -2.68030240359114
C           -0.95922660371626        5.35841973554762       -1.47467133315600
C           -1.87006626088288        5.69589967308405       -0.42587814564944
N           -2.60060317100936        5.95984436338381        0.41577600379398
H           -1.39950995866716        4.58395485801694       -2.10154925808322
H           -0.02911148518155        4.99027922230633       -1.04351247022859
H           -0.75589192451652        6.24268968570907       -2.07765514347911
C           -2.19775672529537       -2.85682786755910       -8.43353437567608
C           -2.04784801410577       -2.99187081504748       -7.01940962195021
N           -1.92769003711371       -3.09723822206147       -5.88523183217598
H           -2.01781674145861       -1.82139111376709       -8.72123308273925
H           -3.20939204738725       -3.14141649360921       -8.72153592302472
H           -1.48248710205057       -3.50344305107120       -8.94087906440944
C            4.96208445363338       -1.79753044442047        2.24288889274813
C            3.73409474022754       -2.01419892692633        1.55325748023644
N            2.75282891599140       -2.18548155073961        0.99036392144041
H            4.93749190288517       -2.30573499658157        3.20569420080398
H            5.10743259647624       -0.72768186242908        2.40529750220484
H            5.78831611126026       -2.18500199105547        1.64846718652933
C            3.14081051565870       -3.63510289754079       -4.02295500850813
C            2.60497450826875       -3.35324655967409       -2.72907384906329
N            2.18192164770324       -3.12231985555722       -1.69227178607430
H            4.18985438736491       -3.34267117296236       -4.05674910105678
H            2.58601477300578       -3.07501850286634       -4.77478189049266
H            3.05535104659531       -4.70147391507806       -4.22879626164370
C           -8.32522786380416       -3.25521943785885       -1.12856728086664
C           -7.18080179967257       -3.10399932738612       -0.28425097507466
N           -6.26108076181240       -2.98125569321183        0.38635073071645
H           -9.19342327793030       -2.80049948242562       -0.65251546840610
H           -8.51884472692340       -4.31479388133576       -1.29251602710719
H           -8.13817251801899       -2.76802091297110       -2.08505675958821
