61
 energy: -87.035128912997 gnorm: 0.000075347243 xtb: 6.6.0 (83090be673e2468c27fcd74d519548d8d51bd8df)
Ca           1.09106791318981        0.40332135524754       -0.50758068042707
C            3.80208991332564        0.64610208767306       -4.68974809925778
C            3.05518916352947        0.59040400789242       -3.47253938387055
N            2.45945435835958        0.54598827645527       -2.49759404440237
H            4.68947141630478        1.26260666986637       -4.54942456667660
H            3.18614496897331        1.07751114981308       -5.47824144345642
H            4.10543041467082       -0.35904340430370       -4.98107334726498
C           -0.87865792482300       -2.89738489247662        2.65282486584013
C           -0.28540440823491       -1.93081162825826        1.78950844254576
N            0.19349590279900       -1.15532177202201        1.09731663531581
H           -1.05201952957669       -2.45881722308902        3.63466709935741
H           -0.21550532929352       -3.75556722186445        2.75475984547170
H           -1.83148401800648       -3.22994189036854        2.23573333504700
C            4.85802992015301       -2.78631055639196        0.47221698758848
C            3.76654952274980       -1.90769081390203        0.18979159906091
N            2.89375667732800       -1.20445166146918       -0.03675245773083
H            4.65593581475421       -3.77140488534957        0.05285665494381
H            4.98805041062391       -2.87468480644046        1.55049825940475
H            5.77193326608340       -2.38905735133594        0.03163519279445
C           -6.69843941011639        4.32343814003916        2.45187978685249
C           -5.52648875756246        3.64239616256008        2.00504584930799
N           -4.58568169402262        3.09528686974125        1.64685064831369
H           -7.30162388487521        4.61587080566507        1.59281249406091
H           -6.41321550867028        5.21353649669665        3.01202805230488
H           -7.28089958704529        3.66397996772337        3.09474504937481
C           -1.54639982560697        2.76019293225210        2.99219496717635
C           -0.59866120015630        2.18760249256142        2.09180826980493
N            0.16503653161895        1.73273341402178        1.37155016078679
H           -1.21592090898036        3.75344225410411        3.29403827219306
H           -1.64220777043097        2.12957855227414        3.87516853192501
H           -2.51736008778831        2.83871449229210        2.49942610805741
C           -0.55111137095630       -3.61557609837812       -2.95976284779952
C            0.01089993259242       -2.44409468845177       -2.36449668950165
N            0.46375377525148       -1.50678217375250       -1.89143576396283
H            0.23654581301310       -4.34180422798634       -3.15820164595281
H           -1.04110269249802       -3.35224997709963       -3.89672172037801
H           -1.28241783606233       -4.05396162686292       -2.28155132394121
C           -3.83715170977393        0.88825513262528       -0.72915791587582
C           -2.42567817117058        0.72145389356504       -0.84995804169259
N           -1.29408334773785        0.58698141310586       -0.95153494545591
H           -4.25133436512961        1.22618280271011       -1.67839414441725
H           -4.05285895497846        1.62978893427869        0.04256198128753
H           -4.29508144492732       -0.06034646454884       -0.45183643315251
C            4.70852188452537        3.23071413460806        1.36586687239922
C            3.71488715492269        2.35961907409844        0.82165886759915
N            2.92117246145105        1.66204988051287        0.38502960607962
H            5.35803615439564        2.67306351998644        2.04000258662542
H            4.22573715761209        4.03619750791595        1.91835292332996
H            5.30660548370623        3.65514373262062        0.56004139453201
C           -5.82486187871458       -5.60560464429868        1.66865193328897
C           -4.66084709504909       -4.77701980106373        1.63079937552690
N           -3.72843526979770       -4.11313806477554        1.59666572105841
H           -6.43059525679330       -5.34514847666796        2.53612780604239
H           -5.52557722214762       -6.65092544316569        1.73918901135154
H           -6.41002401769049       -5.45761185984863        0.76153456391356
C           -0.02709982926339        4.96797931155539       -2.29408467470725
C            0.37674120850822        3.67116491261033       -1.84911074708375
N            0.70094956987818        2.63415992037447       -1.49246451815261
H            0.84835123324677        5.60529805657154       -2.41504446152082
H           -0.69793161393444        5.41347473614310       -1.56024104574712
H           -0.54403924698869        4.88344420475531       -3.24953144957812
