61
 energy: -87.018449002865 gnorm: 0.000195173961 xtb: 6.6.0 (83090be673e2468c27fcd74d519548d8d51bd8df)
H            4.38600183538423        2.05580540173464       -1.64152211187990
C            2.47025139264995        1.30211117142904       -1.49840184429587
H           -4.84989009839642       -1.85824068519374       -1.90412361781355
H           -5.22272513349795       -0.33997385060908       -1.05820947609566
C           -1.96109172578910        1.77617909433736       -0.72843311083733
N           -1.41765128748866        1.77362368885913        0.27970988648447
C           -3.52929471541325       -1.32435409811948       -0.41404700843477
C            3.35695654146440        2.37617057204700       -1.79543739474145
H            3.13399321928643        3.21011334697154       -1.12763254797091
C           -0.81645473567613       -0.15408830185900        3.65370428828062
H            4.26176526918011       -2.65037734204127        2.98852875251888
C           -0.41055266850669       -1.65663927877162       -2.85085436406109
H            3.22155792072756        2.69329279169281       -2.82811888358779
N           -1.13619937489106       -1.23654033172428        3.84890188325813
N           -1.29827782683680       -0.97729433823400       -3.10170080109478
C            3.11178187055515       -1.12287192676269        2.21428336817677
N            1.75799631118564        0.43916367261673       -1.25486285032487
C           -0.42197168328300        1.20056379566355        3.44187923083273
N           -2.46391457937541       -1.28865471669541        0.00243810022744
C            4.38676548902443       -1.71071476687889        2.45308128401914
H            5.00109023353368       -1.03303439995616        3.04386486803354
H            0.65068158254098        1.23434220608387        3.25783943282986
H            4.87493710618818       -1.90195982815253        1.49600635860267
H           -0.66555976995208        1.79284133971445        4.32353593016036
H           -0.94545696462201        1.59746715418681        2.57364027891034
C            0.69599721022461       -2.51149619665772       -2.57014942105027
H            0.48073043748199       -3.10534477706878       -1.68350463341779
H            1.57863522703436       -1.90202130968793       -2.38323976497851
C           -4.85488458769647       -1.35969325158252       -0.93621697598495
H           -5.50621351281948       -1.89897915810763       -0.25038952611052
H            0.87425752896328       -3.16996365008184       -3.41985145559874
K           -0.00632161425578       -0.65845376765074        0.40411164053418
C           -2.63907549578428        1.78791597280895       -1.97893532892366
N            2.08760745833840       -0.64955241519680        2.01886207187224
H           -2.36786045691706        0.88725825285802       -2.52980795596638
H           -2.34568867182237        2.66610375979420       -2.55109087659359
H           -3.71613730014772        1.80300138384253       -1.81222947357046
C           -1.01831446903633       -4.28594943035798        2.73934956739688
C           -0.37244925015666       -3.79912182044823        1.56721594231506
N            0.14914416480179       -3.40963674555218        0.62557431223443
H           -1.24181360497008       -3.43561794036953        3.38372741926767
H           -0.36322242016288       -4.97956662404962        3.26362136201236
H           -1.94363614928877       -4.79064292037265        2.46775159276568
C            7.17709686876008       -2.87381226799828       -2.51191928775563
C            6.39005401584002       -2.52961954065331       -1.36876420365710
N            5.76081570988330       -2.25167348353291       -0.45342610330346
H            7.05629926459513       -3.93428457745690       -2.73029120183617
H            8.22634726232274       -2.66386084391599       -2.30640597970953
H            6.85069802598894       -2.28697977188747       -3.36975147709224
C           -8.01511500023965        3.25568945602714       -1.74307153273831
C           -6.87590899266456        2.41103690405410       -1.57456660723697
N           -5.96281395519691        1.73229789174774       -1.44186636578948
H           -8.79978969911725        2.95026414375609       -1.05164274656554
H           -8.38042754897050        3.17175740909080       -2.76619848408278
H           -7.73589024745637        4.28916781671213       -1.54089636139885
C            1.28220016718392        6.07937628379576        2.10054203551876
C            1.93688882025592        5.29445403983590        1.10059618451099
N            2.46026760075236        4.66409641664128        0.30083788634487
H            1.75119746649353        5.90044580189866        3.06740588331439
H            0.23037784414674        5.79972454582072        2.14736155501353
H            1.36685483827575        7.13550294618220        1.84672072126658
