61
 energy: -87.096409980145 gnorm: 0.000174915996 xtb: 6.6.0 (83090be673e2468c27fcd74d519548d8d51bd8df)
Li           0.52912420435044       -0.94108989439409        1.15474980988692
C            1.01963087328801       -5.44035590713282        0.26217697693059
C            0.92811944688769       -4.04980962182633        0.55436922507580
N            0.85457462159241       -2.93183142709770        0.78630217611957
H            0.04948341811340       -5.80766532022683       -0.06934874306042
H            1.32824637220010       -5.98271309792210        1.15474900698297
H            1.75520882880810       -5.59974222708572       -0.52876648221260
C            0.22691464241930       -0.35311783533687        5.70766999509789
C            0.37959060290584       -0.49825568694990        4.29988261079630
N            0.50607301262821       -0.60998632761054        3.16810909277788
H           -0.81379477366669       -0.54013146671713        5.97981714284400
H            0.50036318050649        0.65839176016803        6.00430984946324
H            0.86672700023005       -1.06871708873870        6.22184285638837
C            4.19346724146313        1.27978501750317       -0.53653734979830
C            3.02415774790657        0.62789378709317       -0.05352583758366
N            2.08325296447846        0.10348215152341        0.33298020541712
H            4.74422392400152        0.60810631803265       -1.19306064795842
H            4.82526924122707        1.56671090835603        0.30265525249378
H            3.90733641025399        2.17484136488928       -1.09382263697008
C           -3.32725721712170       -0.26529113186019       -1.21349452625543
C           -2.18468955036123       -0.38597068454030       -0.37781012555764
N           -1.26004964369024       -0.48760603095276        0.28997461990885
H           -3.12353324176347       -0.76896844070583       -2.16019362137115
H           -3.53710412049214        0.78817416484875       -1.40386432162176
H           -4.18850337307219       -0.72645011737930       -0.73348671187701
C            5.05907585344999       -6.90945235552557       -3.64596852165830
C            4.01652255596271       -6.43118769455500       -2.79216837906734
N            3.18105233804080       -6.04572383767571       -2.11070971236996
H            5.73871274097052       -6.09176846500859       -3.88353549337796
H            4.62565392657619       -7.30118746055394       -4.56561398321153
H            5.60876857409678       -7.70166239287814       -3.13876057331230
C            0.33196983245643       -2.45121295959695       -4.52551224643127
C           -1.00022220371383       -2.13448284903622       -4.11064040975287
N           -2.06648147378348       -1.88175507419969       -3.77867319056554
H            1.02724029792443       -2.19204395125440       -3.72800770246021
H            0.57690308256118       -1.88354961431956       -5.42253081444365
H            0.40224841717197       -3.51702612786226       -4.73895978404942
C           -5.32143502898813       -1.46202092159689        7.03080873463173
C           -3.95509032697630       -1.15526424560792        6.74078545116529
N           -2.86133212165623       -0.91076454762130        6.50723224811504
H           -5.88054173726725       -1.54275261945310        6.09930968983169
H           -5.75010505558911       -0.67006636303431        7.64398274162515
H           -5.37489489886104       -2.40721759484570        7.56993509297226
C           -4.79195527119381        4.95122927116820       -3.24801372803215
C           -4.38122358380508        3.79616915453038       -2.51094837015321
N           -4.05189883160397        2.87267049219227       -1.91984834515873
H           -5.73270075503026        5.32465113941041       -2.84495706872804
H           -4.92732269621659        4.68319339646447       -4.29524452533178
H           -4.02901675522553        5.72457875730053       -3.16661223074997
C            2.30620161382489        6.12863975934556       -2.97768586723257
C            2.88945687821688        4.91253523009179       -2.51107512965075
N            3.35016006196242        3.93557065010536       -2.12907366404145
H            3.03489490448668        6.93507525737972       -2.90922620328576
H            1.44072182967870        6.36576386279817       -2.35585095591764
H            1.98893185359981        6.00942110411820       -4.01261014007056
C           -0.73332245463914        4.93780275556034        1.20938164646804
C           -0.44712861726981        5.74665754042362        0.06588425403113
N           -0.21617933648257        6.39344563561217       -0.85102166450328
H           -0.12655736915403        5.27231295021143        2.04992598603769
H           -0.50090958570043        3.89819263373488        0.98169046598169
H           -1.78880725253479        5.02680893885715        1.46324080170025
