121
 energy: -174.156618304595 gnorm: 0.000119718476 xtb: 6.6.0 (83090be673e2468c27fcd74d519548d8d51bd8df)
Mg          -0.80407228542217       -1.41918013967344       -0.93554513269282
C           -0.98093018565031       -6.01178505324551       -1.19784612872100
C           -1.00530127738752       -4.59573842891977       -1.10931285541872
N           -1.02241671610031       -3.45424422430178       -1.03663961127329
H           -1.57872733228106       -6.44374808846715       -0.39637201402262
H            0.05179232236428       -6.35778759033637       -1.10409070986747
H           -1.37971839736421       -6.32870346344112       -2.16068969402970
C           -8.50495513445577        0.30491592518378       -5.56606241880919
C           -7.25693541618405        0.19038538251571       -4.87077069000852
N           -6.26067423599771        0.09864667046971       -4.31495649920863
H           -8.90162995662955       -0.68920930491631       -5.76898579577370
H           -8.35096488603008        0.83195117269262       -6.50699987725938
H           -9.21439437576645        0.85954179634965       -4.95299916955419
C            4.47571175719934       -7.83993463237830       -0.73666113944471
C            3.13376494401956       -7.35686504696574       -0.83651699408126
N            2.06142999393608       -6.96499482227189       -0.91964012888024
H            4.50544967285946       -8.69835932528188       -0.06632385296089
H            5.11714796282055       -7.05146691612269       -0.34469972183832
H            4.82920403287676       -8.13959871215532       -1.72272554672416
C           -4.76949172685948       -0.21844670238290        0.75658016014566
C           -3.70509178377468       -0.75076707446627       -0.01401622177873
N           -2.84236649380620       -1.18438305224661       -0.62896604254807
H           -4.89653791780797       -0.81897068949004        1.65927189841222
H           -5.69420269457265       -0.22276146308223        0.18196285243482
H           -4.52806392258447        0.80679157194011        1.04667610945651
C            2.96701646635942        6.12765639804213        0.73331119913014
C            1.72662769038277        5.46522660707312        0.48886795295097
N            0.73833712205322        4.92492163282480        0.28111330689696
H            2.82413130339255        7.20627471354705        0.68557179063174
H            3.68408227331282        5.82156949489122       -0.03068824139033
H            3.34043357884936        5.85153822672264        1.71830990879839
C           -1.64067223618339        2.98596999944755       -0.57065522076255
C           -1.10723438745705        1.68127292632703       -0.70537330692020
N           -0.66696029424752        0.62957841558501       -0.81358021703387
H           -2.43259515224849        2.97180515056570        0.18116924515271
H           -2.05019811400951        3.31883788890105       -1.52315492530743
H           -0.85590258257465        3.67615549894813       -0.25124610383321
C          -10.19127272971066        3.61541211056909        3.31774334833195
C           -9.31855578978539        2.47978442317657        3.28533357307119
N           -8.61813580718528        1.57482112670707        3.25598525792739
H          -11.22544883999416        3.27909639372759        3.38200886472628
H          -10.05662814064836        4.20293351563493        2.41036322977106
H           -9.95604206409109        4.23083328070092        4.18518512005637
C            8.97789494172393       -1.36266650069883       -6.61152452093146
C            7.84103444689380       -1.24861767746666       -5.74785541451325
N            6.93076922531549       -1.15879522482909       -5.05949065594690
H            9.20422469797875       -2.41531184738767       -6.77697371353032
H            9.83631903392381       -0.87444996592667       -6.15146462121864
H            8.75889095732060       -0.88737492945847       -7.56699899023852
C            2.07921782743236        6.37592199598534        7.60042161317709
C            1.43180574763933        5.71828062843468        6.50392351245210
N            0.91461263863506        5.19033606886320        5.62979621505643
H            3.15789456347321        6.24962376928005        7.51543297831328
H            1.73622446631428        5.94089634021164        8.53844895842480
H            1.83622618641281        7.43771598091077        7.58334145945967
C            2.98403650094654       -2.33695794749999       -8.78110274607568
C            1.88300017510536       -2.04782754363475       -7.91730712027278
N            1.00217519748675       -1.81530054170200       -7.22383674201527
H            3.91767105223892       -2.10385388235856       -8.27090569373946
H            2.90684156491531       -1.73585488501084       -9.68644272520482
H            2.97347792059662       -3.39323957667649       -9.04741951181589
C            8.47122837134330       -5.12499248578863      -12.63463131424501
C            7.82936440212592       -4.45087563095985      -11.54574348340909
N            7.31603665707484       -3.91327848523594      -10.67504679691115
H            8.69384589051217       -4.40936612843821      -13.42529247825185
H            7.81108309011239       -5.90008510581978      -13.02229563522746
H            9.39780786422065       -5.57946191935661      -12.28576456164101
C           -8.37469854808369        9.39494432306638        7.64203870509336
C           -7.92022669964187        8.32568050911547        6.80401817066898
N           -7.55649135019517        7.47014863082205        6.13593226651685
H           -8.61843362023937        9.00448173320699        8.62946813970641
H           -9.26174061102120        9.84997295231556        7.20290114671539
H           -7.58965926581226       10.14481091931741        7.73210018431146
C           -1.47670778000442       -1.38079730202222        3.55107854495338
C           -1.01803184836109       -1.46810124828378        2.20956800570734
N           -0.64576279424453       -1.54411605167444        1.13059646816978
H           -0.95337641079643       -2.10703598452013        4.17186904644083
H           -2.54900589460744       -1.59075789895576        3.57558191967926
H           -1.29713902598577       -0.37739710171950        3.93562378928296
C           -4.28271292358596        4.52863964511498        3.64932497970760
C           -4.07169396395491        3.54543312246874        2.63693903612080
N           -3.89633109728186        2.75659576307253        1.82489277060830
H           -4.75055939341591        5.40998861513707        3.21208683696468
H           -3.32521666441241        4.80811070615719        4.08797874553880
H           -4.93315251525102        4.12335417493125        4.42364718921681
C            3.72364684481281       -2.11781375577845       -1.22061310840468
C            2.33174860692524       -1.84695476615246       -1.16827160499877
N            1.21025471426468       -1.62432873981552       -1.13083920352004
H            3.92878419699408       -2.84229833261985       -2.00747537754657
H            4.05187010457325       -2.51951480660187       -0.25905665506783
H            4.27279380477834       -1.19970794951816       -1.42471014528627
C            9.05919060226682       -2.87732321848251       10.69526242391269
C            8.23857188200789       -2.92264999191975        9.52158402356483
N            7.58369635904436       -2.95765298887585        8.58334861463533
H            9.57471867729855       -3.82936718263557       10.81580547914422
H            8.43525494140721       -2.68990478301371       11.56838186484371
H            9.79267479930679       -2.07811087130361       10.59511010407221
C           -6.74597565958164       -3.00334292942490        4.80792246674496
C           -5.59848654462807       -2.48632832448348        4.13379887127638
N           -4.67731062999320       -2.07525075918790        3.59109906600497
H           -7.31048161512335       -2.18124731444115        5.24650653219767
H           -6.43055402558749       -3.68737489701729        5.59529708458440
H           -7.37717347544933       -3.53530463234041        4.09678887766441
C           -1.58273567312614       -1.13023746118218       -5.45799160193250
C           -1.28978563801683       -1.21565125174691       -4.07280900454808
N           -1.04277482674226       -1.28828370795184       -2.95803784470162
H           -2.36799706306963       -1.84168530230156       -5.71023619543259
H           -0.68533874472344       -1.36277998513112       -6.03690219442733
H           -1.91801453557572       -0.12306518128725       -5.70213530884290
C            5.76447733397868       -3.04595269131228        4.07477272867921
C            5.23574817769250       -3.01542218016666        2.74766610280694
N            4.81027777790259       -2.98818224106375        1.68492969848138
H            5.49436500218815       -2.12857735033349        4.59651622682518
H            6.85005436153380       -3.12964213231439        4.03609718138259
H            5.35757606396645       -3.90006944584630        4.61477179688217
C            3.61769062712027        3.07413533720298       -3.56328117119223
C            4.12487862086303        4.04391050189200       -2.64214948747310
N            4.52771922226919        4.81934442239247       -1.90149714166969
H            2.82489694541198        2.50143094157618       -3.08403237442370
H            4.42263169063226        2.40586961084330       -3.86626971211635
H            3.22054696638564        3.58345081701553       -4.44053632602937
