120
 energy: -174.086460795797 gnorm: 0.000185736260 xtb: 6.6.0 (83090be673e2468c27fcd74d519548d8d51bd8df)
C            3.03368631923231       -3.15749733596049       -1.42670179274532
C            2.12986492679038       -2.08633207361768       -1.67873739155921
N            1.39931976297430       -1.22995502384025       -1.89872781984660
H            2.58185282669598       -4.09204243410271       -1.76433250795456
H            3.23800641937933       -3.21967428956285       -0.35911686284582
H            3.96348246896575       -2.98370999723522       -1.96670919414597
C           -1.63513778200227        0.24573957316456       -1.82692436077733
C           -2.12181724148655        0.47510059959895       -0.51296012870314
N           -2.50166590316348        0.66198212043937        0.55462010367188
H           -0.63253905634638       -0.17843358344674       -1.76859745425792
H           -1.60251618502071        1.19214718606574       -2.36660039647980
H           -2.29038498516405       -0.45866162918081       -2.33973017086227
C            3.64483946297756       -2.48656203303892        4.28559558900579
C            2.50849264960359       -1.75946818758093        3.83250411141346
N            1.58893380624762       -1.18439217719174        3.45859162523243
H            3.47951629372821       -3.54921439644346        4.10147566107285
H            3.78690009231385       -2.31756131137571        5.35167267949435
H            4.52945463725103       -2.15411450487641        3.74113882663599
C            0.03386323698720        1.57008133486865        2.54800864645496
C            0.91973319688582        2.43233297367982        1.84459960117045
N            1.63645503022288        3.12075148766192        1.27040376970817
H            0.56264251644665        0.65542936333863        2.81869170246484
H           -0.81542692215022        1.32587668954469        1.91017906866920
H           -0.31612699575168        2.06080541797104        3.45616542068931
C           -1.49588401930835       -2.03118445586656        2.49595934970276
C           -1.42875136304919       -3.27212804506100        1.79902056163517
N           -1.37252002897380       -4.27117330181445        1.23833166276616
H           -0.50138484586507       -1.76346281791732        2.85628070697901
H           -2.17807422391638       -2.12143925781272        3.34051293378535
H           -1.85931295684734       -1.25528894019316        1.82215614496565
C           -0.38566837943536       -1.72058501250718       -4.84819656415387
C           -0.24319020521906       -0.68277846844810       -5.81743499490677
N           -0.11947370355566        0.14718361674844       -6.59790134827300
H           -0.06448018083221       -2.66634369630449       -5.28213688815664
H           -1.42567488880672       -1.80230521587873       -4.53275802533850
H            0.23202577892720       -1.49407962292863       -3.97872379471055
C            8.43413907181621       -0.66143734098375        1.38807028799968
C            7.25163205976406       -1.09517835356453        2.06023654104646
N            6.30427361562296       -1.44388491522720        2.60266190397499
H            8.92624875340689       -1.51799276800550        0.92957007806067
H            9.10840265432874       -0.19371339291497        2.10416143334239
H            8.16801459122545        0.06097625095354        0.61467926538365
C           -7.11046040052445       -1.42916353579197        2.72411634386560
C           -6.63388177397525       -2.15231650995603        1.59092674945015
N           -6.24639862817437       -2.73317489713262        0.68194579771430
H           -7.22567252763807       -0.37699685016530        2.45654842851477
H           -6.38626197973362       -1.51420655941839        3.53495235915979
H           -8.06960494106424       -1.83305150462234        3.04296380458860
C           -5.11420505128994        2.98133130879388        0.69141929735699
C           -6.19111931671994        2.29905940678662        1.33421846960901
N           -7.04586853700494        1.74835070818795        1.86312554993270
H           -4.24964998312573        2.31849352465841        0.64012338203164
H           -4.85684516610063        3.87661143965700        1.25529806599269
H           -5.41154787334367        3.26197340610282       -0.32008663022523
C           -4.00860951405525       -4.07626660559185       -1.24200402227007
C           -3.55230454407440       -3.18647737608544       -2.25692805135056
N           -3.17715438560695       -2.47274401545529       -3.07257349904059
H           -4.80372298097239       -3.59627318081778       -0.66837616550770
H           -3.18181958452262       -4.31125921203814       -0.57081788630097
H           -4.39166313347159       -4.98907368067449       -1.69488180214066
C            0.96148767524505        3.09472345196556        7.25184611868060
C           -0.08861340941956        2.78459773707508        6.33753827101437
N           -0.92929294833017        2.53679872093460        5.59868642643685
H            1.87496190209612        3.29560364945573        6.68848646192458
H            1.12455587659057        2.24937858949921        7.91878403241812
H            0.69249843454407        3.97518831769048        7.83349638243926
C           -0.42608945459631       -7.49942362739244       -2.97093993678824
C            0.63863272511326       -6.59032480002021       -2.67723010816544
N            1.49424921921474       -5.86664620721971       -2.44258900816160
H           -0.98877270917124       -7.70366770634893       -2.06094358066225
H           -0.01219170416581       -8.42886674280842       -3.36039883870718
H           -1.08615886993335       -7.05481721444878       -3.71487073092995
C            4.43832551321747        3.82866719514615        2.90915535138900
C            3.95348882469027        3.75911962679160        4.25067877509497
N            3.55968225874627        3.70495686261722        5.32527104227754
H            4.87982997779107        4.80760897375457        2.72943731360626
H            3.60257759034470        3.67291936933560        2.22416298275930
H            5.18496071904818        3.05251974294163        2.74834630502519
C           -3.51430881898899        1.13459584017328        3.87249368505588
C           -3.96128865509382       -0.10646487694281        4.41666231019767
N           -4.32518734925253       -1.10837221158491        4.83942582270869
H           -2.68086218827041        1.51579564658210        4.46215165822856
H           -4.33490677311594        1.85025344620693        3.89545485502543
H           -3.19742822197099        0.97967055868007        2.84168584963426
C            1.69705401181831        2.08944238613712       -2.00310421434243
C            2.87309796321505        2.50255809810388       -2.69415353061322
N            3.82120158841726        2.83143351154666       -3.24835824302508
H            1.70797011349772        2.49499153111724       -0.99049670486147
H            1.67120811360592        1.00040348787851       -1.95332557602460
H            0.81355028671860        2.45110302015181       -2.52804511230866
C            0.47597541259752       -6.72853182818674        2.59470210317073
C            1.62771605671766       -6.07536856107459        3.13299886551555
N            2.55199861880252       -5.55348019996335        3.56367161456875
H           -0.11469656141427       -7.15131640903769        3.40624859566058
H            0.79206735755745       -7.52142096296283        1.91880132068377
H           -0.12697130483946       -5.99889021700218        2.05078541528092
C            1.29241206373183        2.85137653725810       -7.81364287474907
C            0.76903339817761        4.01832264385371       -7.18031394964492
N            0.34976265119069        4.95736396535792       -6.67427820290786
H            0.77160876118256        1.97037838881843       -7.43383995328050
H            2.35510588115888        2.76495069792353       -7.59137972811571
H            1.14685122278403        2.92357350413737       -8.89042434336066
C           -4.52943252120002        2.48842488476625       -4.48175581242145
C           -5.22028896642937        3.13142978290805       -3.40751127721991
N           -5.76215817813401        3.65085513681054       -2.54216204796288
H           -4.86282300277493        1.45510697391126       -4.56319998589068
H           -3.45867458622218        2.51308769025667       -4.27595958139669
H           -4.73156162380841        3.01224546713711       -5.41479160287906
C           -0.91997912821321        5.71232905443292       -3.79975594245461
C           -1.19786521174369        4.36455976791136       -3.43140510029007
N           -1.41351980433392        3.27481381348027       -3.14710931508906
H           -0.49390750446085        5.71390825223410       -4.80547702052013
H           -0.20476119135536        6.14183552479253       -3.09963391064851
H           -1.84064065116421        6.29374384347039       -3.78861848220986
C            7.04907017291823        2.99812258591863       -2.95035103323839
C            7.41926417002682        2.16354987424351       -1.85376711581298
N            7.72148160537136        1.49454225841502       -0.97360917836631
H            7.54149273928815        2.64845821481856       -3.85658901071438
H            7.34712079885756        4.02511799350581       -2.74438891020979
H            5.96619661552929        2.95558647996394       -3.08587536565544
