60
 energy: -87.040327200426 gnorm: 0.000108145692 xtb: 6.6.0 (83090be673e2468c27fcd74d519548d8d51bd8df)
C            2.09496030587090        2.86135782344534        1.20804941230857
C            1.31475129283420        3.54757599926824        2.18565416245887
N            0.68936132623121        4.10431921086327        2.96825452500314
H            2.99676919622096        3.43329900896322        0.99466035479845
H            1.51276115649322        2.74551084595007        0.29493986752015
H            2.36891218489235        1.87604712414266        1.58833559971259
C            2.01532507419136       -3.72367898042127       -4.23051663483760
C            1.13938820329354       -4.28523617980935       -3.25280467463646
N            0.43221291423038       -4.74015912042938       -2.47435922875573
H            1.43517600037574       -3.14166103423004       -4.94537904467190
H            2.54204349359889       -4.52327674956279       -4.74936894014419
H            2.73903759184427       -3.07159671795575       -3.73900548981877
C           -0.84432916586914       -5.47180953115361        0.51967532722607
C            0.10049235236935       -4.90823405876959        1.42520424459210
N            0.86079198002640       -4.45250090589499        2.15287738690501
H           -0.54087876211185       -5.23896431093290       -0.50170107820299
H           -1.82994243414829       -5.05007890813899        0.71865500339234
H           -0.87775954125627       -6.55199639496627        0.65181728123890
C           -1.92946774117136       -0.46123397851833       -1.46475469393165
C           -1.21992806794883        0.20276707286862       -2.50912103206995
N           -0.65230117449263        0.74054933439677       -3.34715765117304
H           -1.22562094170403       -0.80688998442168       -0.70858434578119
H           -2.46854090932045       -1.31373529434821       -1.87519860833409
H           -2.63839443070814        0.23458157572318       -1.01288293219881
C            1.28721833136737        2.77687537651581       -5.00612090025377
C            2.53916979308883        2.83963301948434       -4.32339980711994
N            3.54430337475252        2.88779898012409       -3.77451335184025
H            0.62911413224043        2.08075323728667       -4.48279808434877
H            1.44603724930925        2.42837461135846       -6.02555482880475
H            0.82859432728847        3.76444510624703       -5.02387417296230
C           -1.77986552907036        5.43078969558846        4.63104638949871
C           -2.94194040396496        5.22881752132926        3.82816991379813
N           -3.87596540243877        5.06678017913174        3.18392279478858
H           -1.91509418530822        4.94704096863719        5.59729264998638
H           -1.61586302774644        6.49776253119759        4.77442076829686
H           -0.91692203064645        4.99505146097566        4.12402359650990
C           -4.92187411827284       -2.27059838228779        2.86047499598643
C           -4.26543386515839       -3.29591969464996        2.10848641171607
N           -3.74342792126586       -4.11743653761188        1.50561617387943
H           -5.71938579922669       -1.83580093552320        2.25930197905111
H           -4.20130067103881       -1.49612111890855        3.12086519404062
H           -5.34150405559061       -2.69944677148997        3.76961721797558
C            5.42810301058173        0.56528944164945       -2.41398068436381
C            4.75833933494017       -0.65971239730215       -2.71310243176697
N            4.22256866539235       -1.64221555096862       -2.95929902084353
H            5.51348896950825        0.68061942008363       -1.33477617562136
H            4.85154845654562        1.39648829053575       -2.82521880211616
H            6.42081410493839        0.55672158054718       -2.86175145675078
C           -5.29284891419485        3.84599191410091        0.52578050396605
C           -4.61052846783971        2.64842824818433        0.15568782023422
N           -4.06580298019253        1.68513405345436       -0.14248361132768
H           -4.83799054253222        4.25456504101725        1.43042666231657
H           -6.34226780027485        3.62544166621186        0.71545830867151
H           -5.21163644108213        4.57480242118077       -0.27936039810760
C            3.40056321152161       -2.59102445738455        2.86717975200057
C            3.12207145219648       -1.23903169069852        2.50706102594950
N            2.90423995962165       -0.15129461905098        2.21873806164830
H            3.63635627122348       -2.64556141591863        3.92888853443064
H            4.24462909436104       -2.95614657914227        2.28372255269046
H            2.52454780047791       -3.20857869324085        2.65774704746611
