121
 energy: -174.092913926850 gnorm: 0.000078456780 xtb: 6.6.0 (83090be673e2468c27fcd74d519548d8d51bd8df)
Ca           0.74071350626366       -3.12170135731957        0.16217249420402
C           -1.27582643061405        0.83966913787871        2.04494827632159
C           -0.62689485175870       -0.13632471582164        1.23569582994577
N           -0.08810386493500       -0.90478589406124        0.58101350704548
H           -0.54336521501756        1.57596460207525        2.38072688483675
H           -1.72597058232450        0.36049887783711        2.91484404957101
H           -2.05586484414370        1.33494500532828        1.46942950645390
C            2.49693986061555       -7.10267499161052        2.45339174644412
C            2.03179169326758       -5.92871666606510        1.78264439503109
N            1.66510005128669       -4.98907617453996        1.24552426612730
H            3.11039302874682       -7.69372619030967        1.77407968427469
H            1.64570435627902       -7.69902579879716        2.78011192260081
H            3.09177076756634       -6.81791855155359        3.32066901788460
C            2.78546153094103        0.07859874298078       -1.52242857403037
C            2.56205783582706        1.23144712820770       -2.33436740604672
N            2.39791231212994        2.15885450071333       -2.98828494429957
H            2.63392073466401        0.33365280826285       -0.47457922109398
H            3.80953380301150       -0.26560477784845       -1.66975536151659
H            2.08736354774682       -0.71399461367546       -1.79573478473695
C           -4.13292098189496       -3.85014596829717       -0.09055667191249
C           -2.72439262462457       -3.67562413592057        0.03697749602191
N           -1.59239420507068       -3.54071362902821        0.13461445038283
H           -4.44123958867637       -4.75254897322235        0.43564234944389
H           -4.39734014693425       -3.93545193435189       -1.14347835142775
H           -4.64973770478431       -2.98955968781690        0.33879781308617
C           -1.35938733716917       -1.65358792742117       -3.99112404579201
C           -0.52976094372292       -1.96918109519067       -2.87816899953479
N            0.15199737057806       -2.21761181487429       -1.99258950928221
H           -2.14841668300533       -0.97119937049532       -3.67120989876962
H           -1.80456875245474       -2.56688576612544       -4.38774238108557
H           -0.76467952498672       -1.17450413639892       -4.76796922566527
C            2.31208571903760        4.91945052128627        3.99617540616552
C            1.63469471037611        3.76865701613872        3.49356755621310
N            1.09522681978189        2.84059126291903        3.09282884564526
H            2.97492867836912        5.31734797593363        3.22571642543919
H            2.90058572941036        4.64221685110283        4.86993306246235
H            1.58546086793949        5.68130989642995        4.27591586452786
C           -4.75067531057645        1.63083121033429        5.68888035463210
C           -3.74189113286280        0.71652493867967        5.26342622699426
N           -2.93285592848852       -0.01534587936735        4.91311999061350
H           -5.49936513582638        1.10353628901402        6.27860317386601
H           -5.22414226847475        2.07766951085734        4.81295615106826
H           -4.30003763638784        2.41557741325396        6.29531448130520
C           -5.20228917193080        2.51389791990652       -2.52737855774192
C           -4.28857429967649        1.45109635206102       -2.81006994657480
N           -3.55585605821380        0.60138644324239       -3.03828373979420
H           -4.70346646040475        3.26933223376702       -1.91886847013135
H           -6.06201337330742        2.11903679207166       -1.98810713656089
H           -5.53595374232682        2.96554671479007       -3.46095028001713
C            7.59561250661477        1.48600273403749       -2.78143563064900
C            6.76377778455543        0.34770534536801       -2.54812652564041
N            6.09562132407008       -0.56260572031826       -2.35930347565325
H            7.03585505692496        2.39335453115280       -2.55674093178473
H            7.90880470949583        1.50085086496776       -3.82487224494144
H            8.47456277767416        1.43086382646098       -2.13995007181641
C            4.18715164530566        8.33053641587462        0.14833765316796
C            4.27516594289848        7.20793841260448        1.02193126420836
N            4.34403252231936        6.30566297726917        1.72623346457610
H            3.91407073029027        7.99149782483245       -0.85243140271141
H            5.14987420863860        8.83857951468124        0.10751910102687
H            3.42917999803519        9.02115086804928        0.51604037253529
C           -1.02158382636106       -2.65046010151288        4.96749470974444
C           -0.50654024807316       -2.90430018045631        3.66111765627860
N           -0.08917516345321       -3.10608064431208        2.61492224487666
H           -1.65696533647029       -1.76328880052932        4.94295203778097
H           -0.19912135881431       -2.48458343480790        5.66189296972862
H           -1.61151670574573       -3.50261652316803        5.30229260131110
C           -5.97553361584725        5.19457172713514        1.48402883791191
C           -6.03102261116755        4.03075551898719        2.30659672505631
N           -6.07597404480043        3.09212079553130        2.96308941128529
H           -6.92070847750310        5.31419100102550        0.95575422804736
H           -5.16491294314771        5.09117558820807        0.76079696264852
H           -5.79584423541409        6.07147954105778        2.10495848599104
C            6.84081356864758        4.06744147341330        2.29529977917175
C            6.29951102161588        2.74718887452175        2.21519479327908
N            5.85545347157531        1.69325481461213        2.15453988064279
H            7.25688520787005        4.23127512180762        3.28864052201849
H            6.04690013982936        4.79324503359100        2.11029240851106
H            7.62539103633805        4.19107058081119        1.55015433675414
C            3.27975390335143        6.44352120857263       -5.28655978377046
C            3.34929536857940        6.95853840163563       -3.95501439497707
N            3.40505388874854        7.37032591935590       -2.88782614442427
H            4.04951373497410        5.68475570167764       -5.42150646283244
H            3.43633249875631        7.25285205706578       -5.99892460038462
H            2.30079236206438        5.99585344561770       -5.45228162636965
C           -0.46061886562364       -6.27755569177776       -3.55454810688911
C           -0.02312242029400       -5.63097155248348       -2.35865898388920
N            0.33131455043521       -5.11934623915582       -1.39869237741423
H            0.39609247867825       -6.47894962761595       -4.19628075214735
H           -1.16146411509606       -5.63044909533860       -4.08431247464265
H           -0.95503165044601       -7.21622359978155       -3.30725238248147
C           -1.05807873015777        5.49501566839358       -1.43099037432173
C           -2.39829736809067        5.19238834289573       -1.04450895637939
N           -3.47441259111841        4.94642162211890       -0.73668665595719
H           -0.88443890136609        5.13567239217649       -2.44454918103902
H           -0.36164240968314        5.00403880549305       -0.75225156732441
H           -0.90295492351834        6.57285269950698       -1.39635037547084
C           -4.24343196153861       -4.65218589343643       -7.36773833890145
C           -3.34937106860655       -4.55643261563824       -6.25801067810551
N           -2.63259479261112       -4.47768956029874       -5.36805891121482
H           -4.98848852931233       -3.85960790237137       -7.30481088958896
H           -4.74272389379191       -5.62060243397160       -7.35216994670153
H           -3.68316931481619       -4.54932210108440       -8.29658009547924
C            3.24470017821965       -0.07183911897364        3.07915462507410
C            2.79905165630877       -1.09901796726650        2.19625768929830
N            2.44269652291867       -1.91919644157769        1.48189721423164
H            2.48270599196246        0.70578899320709        3.14506667002468
H            4.16864999330892        0.36949556263710        2.69958537563771
H            3.42770986821548       -0.48694274092060        4.06888090148967
C            5.17119504517112       -3.63314743796882       -1.83421726060054
C            3.82789586882410       -3.47337662133275       -1.38302294878524
N            2.75050098336813       -3.33031649342831       -1.02659408742808
H            5.77066213219167       -4.09097308277600       -1.04883315379995
H            5.58342962844701       -2.65119630696175       -2.07405802766885
H            5.19409570399751       -4.26138284713586       -2.72337529454874
C           -7.59746727119402        0.13334114933630        2.27933554941564
C           -6.65320242762014       -0.73541390475457        1.65055050772340
N           -5.89303139809541       -1.42773540217807        1.14635726979268
H           -7.99161394709489       -0.34435460618559        3.17533820199265
H           -8.41671929831704        0.34194984716607        1.59230497895638
H           -7.10473658314758        1.06827391392947        2.55128471501025
