61
 energy: -87.016741523688 gnorm: 0.000187243075 xtb: 6.6.0 (83090be673e2468c27fcd74d519548d8d51bd8df)
K           -0.02641505852245       -0.40443748597160        0.40337150026204
C            1.78662422137699        1.36426045278720       -2.01427293505020
C            0.93804330996947        0.77584507917729       -3.00026778602611
N            0.26973555297952        0.31607602684492       -3.80917116625734
H            2.30923842965136        0.58011635458660       -1.46918187316260
H            1.17917677737666        1.94180588779314       -1.32003358580309
H            2.50960469189652        2.01754349307375       -2.50184579826268
C            8.56703810437180       -0.05012889333061       -2.01744234924430
C            7.39189662792180       -0.84441863444640       -1.83617125873051
N            6.44929498315113       -1.47799945219804       -1.69143513756075
H            8.34815314590581        0.98624501956733       -1.76263769390823
H            8.88753229010839       -0.10882695891581       -3.05705926417287
H            9.36145629260745       -0.42326785829310       -1.37199970990917
C            2.06261585543642        2.89845172354847        3.72428501763953
C            1.75669744291446        2.06236310933811        2.60937726676142
N            1.51094062534579        1.38190099914456        1.72271276432341
H            3.12980676404466        2.85792502584394        3.93663125361339
H            1.50259683711726        2.54770893274961        4.59264169510920
H            1.77653879353829        3.92529049212371        3.50203863622978
C           -3.76962109746023        1.71075228056610       -0.33975170126936
C           -2.35012201719442        1.76252635301014       -0.42253601008268
N           -1.20768381799193        1.80131616758062       -0.48459192177126
H           -4.18950975844832        1.54449079994391       -1.33152941044533
H           -4.15107108773929        2.64688927360920        0.06364619316333
H           -4.04649028792170        0.88886063744634        0.31966983717957
C            3.82030126832733       -3.39718284829913       -1.54242328054413
C            2.78810490189516       -2.57787154537647       -1.00042596638055
N            1.96501774529684       -1.90851808640052       -0.56947930272917
H            4.74214422990697       -2.81572720539150       -1.60232442297386
H            3.53740769423713       -3.72870725523524       -2.54035234262271
H            3.97896078205868       -4.26285842943082       -0.90155445796825
C           -2.69366125266624       -0.98247746218763       -3.60846921825285
C           -2.17632531658879       -1.23690838103722       -2.30800578944228
N           -1.75621736586486       -1.44000715772873       -1.26243010740646
H           -3.49909331537130       -0.25026427017079       -3.54516267216681
H           -3.06803467879268       -1.90479577637882       -4.04879411849724
H           -1.88674393272628       -0.57937485261623       -4.21992170898955
C           -2.21917939917255       -3.03664797650430        1.62687458545461
C           -2.82096181450583       -1.75140502507051        1.77660200947695
N           -3.32268149291696       -0.72967384882663        1.90598977184085
H           -2.05537496946780       -3.23102203192479        0.56850680881755
H           -2.87522574475300       -3.80002262719881        2.04421195488873
H           -1.26289404443002       -3.04652748220194        2.14692937944446
C           -2.24870543282005        1.42787708983617        6.83445306096146
C           -0.89812561170133        1.44671382737122        6.37300246284727
N            0.18607655657230        1.46119931210794        6.00290884033225
H           -2.89617398488802        1.06155168864343        6.03836422691675
H           -2.55167875712945        2.43608571783198        7.11547209101948
H           -2.32904720482495        0.77121271743299        7.70020598784448
C           -6.22879983406789        2.72865258242301       -5.34187736050686
C           -5.53353189832296        2.04263277132212       -4.29951393308017
N           -4.97646535132069        1.49199483151528       -3.46376882625381
H           -7.01619216946460        2.08754906983783       -5.73705491979497
H           -5.52994852033498        2.98013471895979       -6.13907438423791
H           -6.67016878575314        3.64210250631399       -4.94454237836509
C            2.12763814427809       -0.97531097296799        4.83945308000373
C            1.25667987523924       -1.31671942550271        3.76273787800589
N            0.54758861803555       -1.59003325138329        2.90720837898452
H            2.23417383834568       -1.82584758382439        5.51131051093782
H            1.69848302171694       -0.13359778108160        5.38438909742379
H            3.10339525244984       -0.69964229797992        4.44404839158108
