121
 energy: -174.063826109993 gnorm: 0.000195056640 xtb: 6.6.0 (83090be673e2468c27fcd74d519548d8d51bd8df)
K            0.83608031664818        0.60602406132617        1.14773176691872
C           -3.49986364354615        3.12864903940500        2.05825403816906
C           -2.34000238467732        2.38975818855994        1.68823890237215
N           -1.40555942504693        1.79979378472243        1.38950418887470
H           -4.14027619484700        3.25600872067776        1.18403465460085
H           -3.20559586248789        4.10407880294395        2.44121127315303
H           -4.04715121335124        2.58278681498215        2.82601730941316
C            1.43940972112404        4.20908704874605       -0.32906930108785
C            1.10423530596801        3.10824663963172       -1.16179415812962
N            0.83255144126752        2.24751590588994       -1.86987073246238
H            2.40780231043255        4.60955522880736       -0.62411692623508
H            1.48326064065085        3.88113565447655        0.70744901128811
H            0.67615904463151        4.98066560592653       -0.43844602591246
C           -1.40118816575454       -0.14649221450862       -2.56160378089234
C           -1.99991154621976       -0.70827588452506       -1.39886063799331
N           -2.49915503212552       -1.18274705102296       -0.48225555546222
H           -2.11595686830489        0.50848989102724       -3.05788441130878
H           -1.11332282909799       -0.95316042565428       -3.23656647010722
H           -0.52171834809539        0.42592562468208       -2.27070255881596
C            2.00343386428256        1.41128668846214        4.87107356080750
C            1.87987247612419        2.10925847418717        3.63768064187682
N            1.77718608310219        2.68064480206332        2.65061572376916
H            1.40018720823711        0.50652478506244        4.82306082154135
H            1.65361101514033        2.04151134042387        5.68698301034979
H            3.04600427450031        1.14093061700675        5.04130388390187
C            1.74067136763392       -2.95140228007288       -2.35306350588813
C            1.34455105857152       -2.14900205432818       -1.24711340372723
N            1.02049847493161       -1.50165248733933       -0.35971024139681
H            0.98585369989849       -2.89635455137932       -3.13793891064235
H            1.85701129671895       -3.98225549273286       -2.02131265513762
H            2.70052808026035       -2.59777130522631       -2.73081139773599
C           -1.23575882026608       -2.66426548900127        2.12621357753045
C           -0.44373764914192       -1.69298013829158        2.79530781794855
N            0.20341427415048       -0.91582184747123        3.33295679391236
H           -1.65864143717944       -2.21183261854709        1.22968697701067
H           -2.04437268315424       -3.01011541783652        2.76920790487899
H           -0.61281009000826       -3.51066291460799        1.84472493798634
C            4.07882400938445        0.79858042087922       -2.38280677590001
C            3.60997139201988        0.71513222449181       -1.04284324314234
N            3.23688477865140        0.63707576492584        0.03756613397653
H            4.87011293098563        1.54494711565588       -2.45171879014325
H            3.25344212225455        1.08514768031755       -3.03126984136297
H            4.46442050275059       -0.17569614106436       -2.68619961155845
C            4.30531621813484       -2.49609831959220        1.31395667750131
C            3.79676443788981       -3.64935200256646        0.64313011127618
N            3.39738812838489       -4.57867833379919        0.10450633155684
H            4.13579354666996       -2.59139509828166        2.38503911536194
H            3.79609996878419       -1.60779429293647        0.93970983202559
H            5.37509203716834       -2.40523749599011        1.12391333511124
C           -5.99231560521789        3.23006392932762       -3.09140720451040
C           -5.67368700431912        3.21133285459660       -1.70115664201701
N           -5.40878228616229        3.19657647267137       -0.58606740088662
H           -6.53211758011568        2.32100742401432       -3.35324555707125
H           -5.06592143975342        3.28164967215089       -3.66645996902517
H           -6.61052405275625        4.09801593255176       -3.31597338135893
C           -3.11424621749476        7.67819929076138       -1.55245881767539
C           -1.93993129363460        6.92467839311071       -1.23706621276315
N           -0.99743063184034        6.32552369389121       -0.98554323746612
H           -3.87985051085674        7.48861506845548       -0.80113070819591
H           -3.48429942632450        7.37808609288700       -2.53207615405104
H           -2.87205095069483        8.74036553970612       -1.56449983899210
C           -2.26495528918181       -4.63415439379211       -5.69169493347994
C           -1.48443963646165       -3.64938450342178       -5.01315293802936
N           -0.85708675301862       -2.85932103244615       -4.47052049826464
H           -2.12985301240240       -5.60083378054458       -5.20752006010074
H           -1.94591258580835       -4.70015295720682       -6.73133162022770
H           -3.31743722320289       -4.35566827940316       -5.64953761264339
C            6.60176121721845       -3.90658907850994       -1.58580538463345
C            5.68603308625775       -3.02933811598606       -2.23784227275671
N            4.95122453911293       -2.31865469023898       -2.75596310525524
H            6.04643361559381       -4.72189859484464       -1.12336122309481
H            7.13738381923998       -3.34955743709609       -0.81598032926399
H            7.31020491359507       -4.30690975060633       -2.30932989171575
C           -3.23680542059015       -4.51863615130404       -0.13669824449094
C           -4.21911178725312       -5.16302804554435       -0.94982155301991
N           -4.99802355686648       -5.68355074401251       -1.61027358549342
H           -2.28001801025183       -5.02390774581356       -0.25886050020894
H           -3.53929631220977       -4.56225939646129        0.90971700640101
H           -3.14027115141192       -3.47544804326488       -0.43784835967493
C           -0.55394210062602        2.77703123305535       -4.84096103637937
C           -1.94571464483359        3.05063440933025       -4.68199991108995
N           -3.06463300777981        3.26337740685425       -4.55503818167125
H           -0.42603786869212        1.87972748432485       -5.44505673585752
H           -0.10325360774538        2.62454884067491       -3.85803937493992
H           -0.07204904028234        3.62021344829865       -5.33391391380728
C            7.72300207879855        5.41696734981675       -2.89302068023620
C            6.92430298798879        4.24140973744237       -2.72847564051560
N            6.28451320750135        3.30165802357286       -2.59346717177725
H            8.71072155292747        5.13819665598816       -3.25845873085610
H            7.81999660951604        5.92734687179296       -1.93539227742369
H            7.24564438880282        6.08219002762905       -3.61164331335818
C           -9.74036498461253       -3.77099922488777       -0.40017241491871
C           -8.72242393504583       -2.81715209793707       -0.08091648464932
N           -7.90933577369918       -2.05279726779417        0.17464407562285
H          -10.38545928480168       -3.36567012067210       -1.17879826162205
H          -10.33330665213515       -3.98220332676587        0.48893814431301
H           -9.27539976087800       -4.68981624390146       -0.75557628070233
C            6.53739824336666       -0.25407360998959        7.74049474054477
C            5.71394278717342        0.12638072294569        6.63410529689108
N            5.05388692688521        0.43088535524477        5.74957753354029
H            7.20780637927833        0.56601993085913        7.99515643537757
H            7.12269538877518       -1.13350366058704        7.47420060748262
H            5.90602537809628       -0.48525096961643        8.59782586485588
C            8.26170851113772        0.56282588716001        1.50719161783295
C            7.90930530489542       -0.76248150938054        1.10705301795091
N            7.62389944070390       -1.82438315724420        0.78570340331923
H            8.64666686749107        1.10892667972061        0.64689122440874
H            9.02535557978437        0.51858429293066        2.28280969246908
H            7.37735723601540        1.06900625582541        1.89286806386970
C           -5.96021915542037       -4.48259940488814        4.73507350696098
C           -4.82044337975176       -4.43079397024043        3.87422618516690
N           -3.90598390172299       -4.38553062852990        3.18648879495372
H           -6.80938911585552       -4.01798520342971        4.23506896919885
H           -5.74271038628055       -3.93987245818511        5.65434030684269
H           -6.19500976543842       -5.52028143397649        4.96936398421292
C           -5.40707960842216        0.04370554058601        1.01945955872238
C           -5.43758715129866        0.21803664928186        2.43577440504723
N           -5.45701713509412        0.36612455794432        3.57270659148144
H           -6.18888653211238       -0.65533644275321        0.72355221279851
H           -4.43433599473630       -0.34559260345543        0.71873046504925
H           -5.57476689390242        1.00424312933083        0.53251810303660
