61
 energy: -87.094912007210 gnorm: 0.000082376931 xtb: 6.6.0 (83090be673e2468c27fcd74d519548d8d51bd8df)
Li           1.65484618455001       -1.06962640964578        0.64473437567202
C            3.29332884340641       -2.50884409684432       -3.40722980352199
C            2.81258414766144       -1.97216152551834       -2.18034454295456
N            2.44202383932089       -1.53046950166180       -1.19181605570859
H            3.08318733084682       -1.81728595554100       -4.22180582907549
H            2.81201210244351       -3.46534253246218       -3.60502263038686
H            4.37155055009332       -2.65449367021995       -3.31811127812779
C           -0.17877264895427       -4.70812377549273        2.44548998935265
C            0.64016673163608       -3.62306845627163        2.03005473186400
N            1.30065431768214       -2.75099583015805        1.69305209498910
H           -1.10312897545646       -4.68557740041124        1.86317365848496
H           -0.41379604089447       -4.61185658104686        3.50432809231769
H            0.33663261939765       -5.65109421569610        2.26914633863697
C            3.60779191166606        2.61490857549919        2.32298928676349
C            3.23185278746822        1.32346079294048        1.86118705967502
N            2.93578476729341        0.28710316097162        1.47549031070159
H            2.83775891573519        3.32722274448316        2.01994332908150
H            4.56248997494628        2.90247612175726        1.88447796533574
H            3.69079041724401        2.61144585460716        3.40874311506367
C           -2.20369467106363        1.23705905909600       -0.34347397491244
C           -1.01072560910694        0.54933686833354        0.01362390570096
N           -0.04397498866572        0.00650158014488        0.29536062956718
H           -2.64013484047415        1.70407223787746        0.54061876148303
H           -2.91349660956211        0.53216390270784       -0.77442856314770
H           -1.96123705280464        1.99842476793921       -1.08413861689521
C            5.65238614023437       -2.14297739322284        0.79776474761572
C            5.88270043654259       -2.34909333762115       -0.59777453696010
N            6.06403152205819       -2.51366183757735       -1.71691327979236
H            4.68036481099581       -1.66532583092027        0.93237161170851
H            6.43671991112935       -1.50715021430858        1.20580668269005
H            5.66042974949691       -3.10331397747032        1.31128182600635
C            2.01520941305399        2.26550784324637       -1.50530077266650
C            0.82122013010577        2.24162871403675       -2.28319471670400
N           -0.14613873464289        2.22968249216239       -2.89808286326299
H            2.23748006496198        1.25525907546385       -1.15995619123550
H            1.85720845606705        2.91312801158771       -0.64167559622523
H            2.83942783329934        2.64632777486526       -2.10615653157949
C           -4.43873716831263       -3.73418092391221       -1.30156304641811
C           -3.47487672860329       -4.05312031499905       -0.29894158137221
N           -2.70128927581570       -4.30702300663120        0.50740023252863
H           -4.11609848768107       -2.84490908922707       -1.84520025929245
H           -5.40354120705906       -3.54315291009098       -0.83350444015355
H           -4.53161719827776       -4.56800557431171       -1.99620116265735
C           -2.63532148083210        0.81763436660997       -4.50029755892429
C           -3.14233406538388       -0.20632183443655       -3.64644047420792
N           -3.54878340077484       -1.02052323114008       -2.94939108402486
H           -2.31387994061770        0.38015286474267       -5.44437312136456
H           -1.78484010625005        1.30229386731803       -4.01696551103868
H           -3.41516148513820        1.55438956608611       -4.68924145847959
C           -1.39577512343157        4.99712513338038        1.08965072773641
C           -0.05458741521128        4.51327039551135        1.09270999192536
N            1.02207322965312        4.12051274508453        1.09393236110202
H           -2.05760069784486        4.22954082678374        1.49364974922416
H           -1.69511583230341        5.23783349541268        0.07033878203619
H           -1.46189742453938        5.89261892002862        1.70655673962188
C           -4.95742615475134        2.20554780175042        4.39552872660492
C           -4.12597001665091        2.46471655098874        3.26437783499032
N           -3.45921504284985        2.67177105798480        2.35610981732238
H           -4.89524150531076        1.14961591544341        4.65690182149284
H           -5.98917532403884        2.45992927055722        4.15445003182793
H           -4.62316012034610        2.80846692396742        5.23933013844827
