61
 energy: -87.107753117665 gnorm: 0.000191756342 xtb: 6.6.0 (83090be673e2468c27fcd74d519548d8d51bd8df)
Mg           0.23798933840884        0.38569027870905       -1.50631150285344
C           -7.87538589099175       -2.70743764456140        0.13612093800267
C           -6.59746456351019       -2.06771317404437        0.17411593605224
N           -5.57333585378756       -1.55654385671653        0.20286051062992
H           -7.78403821604244       -3.72844135338491        0.50545981165840
H           -8.24653296893168       -2.72448327503476       -0.88816708426601
H           -8.57601270407307       -2.15828044765269        0.76448274153908
C            2.28143783498247        4.07378539629538        0.35603684856601
C            1.65541324023253        2.95321350242059       -0.24588233838979
N            1.15499600845062        2.04969235910208       -0.73877456455684
H            2.75180889625912        4.69018129795106       -0.40943263239048
H            3.03703793545920        3.73771618214906        1.06527873017766
H            1.53511525170631        4.67185103600708        0.88595146612197
C           -0.81329645510909        7.84098056531855        3.35568542692413
C           -0.21924745831219        6.81211868383567        2.56134078429233
N            0.25602188909908        5.98740585443619        1.92508239179304
H           -1.60558532552277        7.41640775405137        3.97134120166911
H           -1.23139162067634        8.60877659922711        2.70537187034891
H           -0.05525448915328        8.28692425398261        3.99904748513012
C            2.58834160570698       -2.06311362860253        1.60940819639346
C            1.85302346329573       -1.36417915207940        0.61880694723894
N            1.26513199310805       -0.80197358177309       -0.18610097737823
H            3.64067486312986       -2.10869640504357        1.31565556451644
H            2.20227839218945       -3.07664711950915        1.71203385431498
H            2.50333929939052       -1.54483459695802        2.56387349535909
C           -2.10126810089257       -3.30293304980146       -2.99153344898912
C           -1.31489052872827       -2.17917060592629       -2.61410336826427
N           -0.67791267370422       -1.27707566579614       -2.31875146681763
H           -3.04053725722196       -2.96163634338444       -3.42646185763098
H           -2.31362903521072       -3.91116947834199       -2.11238471141853
H           -1.56127630760986       -3.90280267112255       -3.72419320868120
C           -3.29033253001748        0.41750256881835        1.42866590564501
C           -2.19577608759603        0.49216156800482        0.53628553403224
N           -1.31322635381805        0.55197133340007       -0.19132267454806
H           -3.74983360667104        1.39872594996478        1.53832303722884
H           -2.94525451404005        0.07173222091522        2.40549795966138
H           -4.02963419613757       -0.28596474837736        1.03863190102549
C            8.17770873927501       -2.88763062688479        0.72977294724713
C            6.78863988213152       -2.55256929046747        0.73651051985661
N            5.67561090246585       -2.28358954317477        0.73935779079826
H            8.30634592916338       -3.91320730399462        1.07483228999286
H            8.71891391201894       -2.21338563751936        1.39295445998174
H            8.57256881186003       -2.79485752795764       -0.28146468705682
C           -2.51275221095070       -1.04123731210585        6.93180085788162
C           -2.43378663098214       -0.71819405093633        5.54103557271694
N           -2.37156167706176       -0.46116846275041        4.42715967153652
H           -1.50891920403741       -1.13463368887128        7.34465184066059
H           -3.04450892099374       -1.98397960140245        7.05724020746302
H           -3.04805322396254       -0.25214899103232        7.45907554598502
C            3.91400181659534       -0.33672992784952       -4.19497322306360
C            2.73388366386435       -0.06488983669118       -3.44795011593751
N            1.78333622835941        0.15661247483059       -2.85301246953457
H            3.69091961097367       -1.04820755522913       -4.99003156984711
H            4.67187309125148       -0.75957749144871       -3.53549988637271
H            4.29271839051483        0.58596662383600       -4.63458053189519
C           -2.14568237523251        3.29414680645509       -4.16944368549248
C           -1.37746646906274        2.34586009373125       -3.43813296532187
N           -0.75960380991754        1.58021451828816       -2.85609474134104
H           -3.18060384284660        2.95780537181103       -4.23214422736011
H           -1.74062851892495        3.40076802493545       -5.17577974642663
H           -2.11129496693543        4.25909244634117       -3.66347800186643
