121
 energy: -174.160464352175 gnorm: 0.000185613708 xtb: 6.6.0 (83090be673e2468c27fcd74d519548d8d51bd8df)
Mg           0.67158933407532       -1.52773132457726        0.32070705790869
C           -3.51287438488633        0.02913126643985        0.82067450047120
C           -2.26101293442249       -0.47344490452406        0.38476886005777
N           -1.25774704676018       -0.88886136393931        0.02143243447861
H           -3.37042758537924        0.99974465691776        1.29409370303973
H           -3.94318932975369       -0.66577038207087        1.54660477461273
H           -4.19148366602422        0.13866409283019       -0.02393077920620
C            3.37613627878276       10.04100193861114       -0.44434765277951
C            3.07900410118379        8.80121288505794        0.20784975214842
N            2.84138362163429        7.80876637171210        0.72680274522381
H            4.41509840518640       10.31088143438927       -0.25851135069135
H            2.72360776371114       10.82249258722561       -0.05683677662656
H            3.21398895378479        9.93584809018181       -1.51638502983929
C           -2.11684804996783       -2.15672525696284       -7.80650887397587
C           -1.08951773893118       -1.93734748241545       -6.84277582615428
N           -0.27375780469297       -1.76821229964850       -6.05599564713449
H           -1.72049267138874       -2.72771421359031       -8.64506146255790
H           -2.49677340350037       -1.20045616554982       -8.16309288322267
H           -2.92517403462569       -2.71816300379403       -7.33316094823635
C            0.20933462607380       -0.35490519606427        4.76439085434053
C            0.33865143995984       -0.77316468809379        3.41539145970504
N            0.43656894339246       -1.10461693475111        2.32480666700798
H           -0.79185300590700       -0.58527620078570        5.12638798020698
H            0.37648114037168        0.72369665323751        4.82128503601452
H            0.94363386903728       -0.86948939886035        5.38238808644383
C            5.82925653694997       -9.52531438744098        4.29216402035343
C            4.81217602761045       -8.54586706935383        4.04961031422428
N            4.00125508552445       -7.76160680911151        3.85535624554471
H            5.81766350861129      -10.26780226953690        3.49505098506531
H            5.64357859683734      -10.01676287579158        5.24657895829822
H            6.80366919419152       -9.03882776927939        4.31959007833542
C           -1.05176609116280        0.44192546087875       -3.44661538728261
C           -0.25552249744462        1.62395513618261       -3.38899212914249
N            0.39169741081875        2.56884970077845       -3.33414935452577
H           -2.09161127519025        0.71321180748474       -3.62921665074387
H           -0.96564448003497       -0.09185423313970       -2.49962634298483
H           -0.70376755022320       -0.19358138422799       -4.26106407134368
C            4.92036959352053       -2.63344218816834        1.68594497389655
C            3.63352395948653       -2.35720996196648        1.15717897197782
N            2.59602983627173       -2.13751321961571        0.72793486142443
H            5.11400194955829       -1.95751844562319        2.52262889838247
H            5.67699953305939       -2.47902894968522        0.91773817428123
H            4.96109187888691       -3.66352105294509        2.03825237058636
C            8.78016972433200        1.25307983000833       -3.70013860137424
C            7.63891341401162        0.66739223751234       -3.06202931644254
N            6.72600296466941        0.20187650285546       -2.55211562318629
H            8.78064642428959        2.32899575002365       -3.52914448125870
H            8.73954464424281        1.05709475908518       -4.77100463000873
H            9.69098466939251        0.82059454578455       -3.28764360452670
C            5.79945306551173        1.13352460509437        5.99272642610827
C            5.56408987908814        0.17982280105262        4.95380040095458
N            5.37020228425185       -0.58372710449017        4.12325497002711
H            6.74587238172312        1.64248983173412        5.81276253346795
H            5.84176738115326        0.62242957042380        6.95402788283783
H            4.99109989028737        1.86371208721002        6.00477711048088
C           -5.68277023809245       -3.20227802348791        5.06618745799830
C           -5.10732079545645       -2.51517524778437        3.95268899000616
N           -4.64370455561226       -1.96534617830116        3.06199075417964
H           -6.46172313650842       -3.87866788088616        4.71570254656891
H           -6.11701776157592       -2.47871456586109        5.75548838943164
H           -4.90992762906432       -3.77315063874961        5.57964297751331
C            0.59439763436923       -6.95147983913513        7.52115930521647
C           -0.09316575148748       -5.88754368451153        6.85256195741377
N           -0.64152042298577       -5.03811118378346        6.31592659217636
H            0.51293688938182       -7.86389203144996        6.93167823723229
H            0.15159434874883       -7.11308245262333        8.50340945693777
H            1.64518684861730       -6.68809899926770        7.63527491342151
C           -1.76697915523883       13.89486517845271       -4.02813010035524
C           -1.16996949324646       12.75445527229061       -3.39943821336329
N           -0.69451592032173       11.84209669758575       -2.89734972301820
H           -1.34098767515733       14.80587203076090       -3.60944482598150
H           -2.84231599968228       13.88447021900022       -3.85408535833820
H           -1.57237534803486       13.86276124595834       -5.09949399229659
C           -0.64870548048840       -5.80314903077949        1.36136162557459
C           -0.28846694952160       -4.49116281923451        0.95943878959592
N           -0.00668372498402       -3.43373919179550        0.62556804817388
H           -1.55882462698104       -5.76546924130280        1.95869606803736
H            0.15504692475583       -6.23712080701236        1.95491774173326
H           -0.82049869088155       -6.42532669767653        0.47981677992977
C            2.08779521226962       -2.21583120126974       -3.95334420315222
C            1.48761185713386       -2.06199541554345       -2.67718144516767
N            0.97957842624217       -1.93665557395461       -1.65957734364638
H            2.52394028131123       -3.20998410859900       -4.04108219014818
H            2.86639010276820       -1.46511972643366       -4.08337124044590
H            1.32895610478146       -2.08457567140218       -4.72920469011355
C           -5.99592641560505        2.01692707446664       -6.03252440715926
C           -5.00904768893999        1.51169467368135       -5.12798144496085
N           -4.21969136857240        1.10540811218776       -4.40540951169673
H           -5.50832104131286        2.59026850346027       -6.82030683160442
H           -6.68894490529990        2.66133612248367       -5.49273681935911
H           -6.54388733561957        1.18552704361771       -6.47483616628313
C           -3.96046627549256       -3.96835303357271       -3.25522388074232
C           -4.06894580998955       -3.88870529281249       -4.67867927787613
N           -4.15170270880269       -3.82247944639597       -5.81948437681157
H           -2.91038652034961       -3.92293712718578       -2.97032140592247
H           -4.39318278527888       -4.90649776910086       -2.91011331401765
H           -4.49727021370716       -3.13372231995685       -2.80732843581044
C           -1.62184863600532       -9.55651297555105       -2.95904201297738
C           -1.40220122273713       -8.55299895499807       -1.96449006889175
N           -1.22821315483920       -7.74679427093843       -1.17057416637070
H           -0.86817717217831      -10.33731767067088       -2.86195709550609
H           -1.55391212104198       -9.10888903761536       -3.95013381707591
H           -2.61158671594607       -9.99218060826481       -2.82537437026460
C           -1.66075572808306        7.05691426832585       -1.42962735881864
C           -1.99801605492591        5.93091787656220       -0.61167000104672
N           -2.26330246558682        5.02956500679850        0.04235665085974
H           -2.49112019656974        7.28735447708401       -2.09578815653968
H           -0.77641809340509        6.82324535398626       -2.02089009653771
H           -1.45615990133226        7.91957642507748       -0.79700344104294
C            0.69327094477429        5.39757279072376        4.67195778750628
C            0.68748528301515        3.96976289714537        4.72508224624617
N            0.68663558684912        2.82557312763985        4.76921699133324
H            0.26086986915586        5.79838681897667        5.58825853693157
H            0.10559583951560        5.73173231737327        3.81777846123121
H            1.71685764853116        5.75555711002784        4.56736494772566
C            2.22774544055891        2.70195328853574       -0.69080152337310
C            1.74047538102771        1.42289293377789       -0.31587443603580
N            1.34212619974610        0.39108813346666       -0.02456966086165
H            1.74587214101432        2.99323159938752       -1.62801718860253
H            3.30642332350971        2.65879455483589       -0.83539839666957
H            1.99043891354150        3.43207639086395        0.08152243756572
