61
 energy: -87.030504450266 gnorm: 0.000188143041 xtb: 6.6.0 (83090be673e2468c27fcd74d519548d8d51bd8df)
H           -4.92247212862889       -3.80658223529932       -0.11152506377794
H            1.68977047659317       -0.84023800316442        4.68535410344525
C           -0.94425895434879        4.35656447283754       -1.07340042100370
H            0.09086734988310       -0.11060739598878        4.95988432657869
H           -5.51741936437315       -2.51215401103411        0.95436017405705
H            1.42876369636037        0.88809023461639        4.35650854027798
N           -0.66758103821300        1.82716092176914       -0.70777968272942
H           -2.00124291388331        4.61643964782980       -1.04391077765234
H           -0.52917699745332        4.63313246657813       -2.04148617917187
H           -0.41559095989418        4.89923343351853       -0.28765985004777
N            2.03780477244187       -1.17305150766900       -1.04096998626913
C            3.10148125964716       -1.12316406316572       -1.45927604162934
C           -0.78933113657916        2.95374508789682       -0.86944504420443
C            4.43002092634473       -1.06795065536868       -1.97984230470661
Na          -0.41886559707428       -0.60432833906525       -0.45057251203158
N           -0.97961219354272       -1.63559817811692       -2.57890906665378
C           -1.35324894784756       -2.41012806627554       -3.33305071365242
C           -1.81589268497352       -3.38897752191588       -4.26239093393499
H            4.98496961904129       -0.27462598334867       -1.48102697696358
H            4.39442815884656       -0.86744745728166       -3.04976611052454
H            4.93194274900115       -2.01918649501857       -1.80682086677041
N           -0.82727708392388       -5.31336568699299       -1.80699600818690
C           -0.39338832624537       -4.69593708490006       -0.94443625062868
C            0.14651515022828       -3.93803186653002        0.13782114176686
H           -0.64747194970505       -3.34935367225990        0.59446324636096
H            0.91083191342218       -3.26076930650333       -0.23986569872613
H            0.58029502810969       -4.61091178203206        0.87575928813486
H           -1.26307056247846       -3.30513960759052       -5.19652194980748
H           -2.87858441783245       -3.24547745299463       -4.44973806014881
H           -1.65147887679264       -4.37547815894318       -3.82687898895261
N            0.30560600742799       -0.66317212622830        1.90533349334113
C            0.60185172211348       -0.41016921538767        2.98043522233234
C            0.97533227538264       -0.10140863543841        4.32436982105490
C           -3.66235878653853       -2.18730953671028        0.10707412780825
C           -4.97895099834458       -2.72849150696175        0.03287564130472
H           -5.50815706644358       -2.27970393538353       -0.80910906904767
N           -2.60251749211947       -1.75925259370875        0.16948559219826
C           -8.01440852427550       -0.30454189926182       -4.35332117072936
C           -7.22830212959881       -0.91779657425433       -3.32795623237936
N           -6.59755181712270       -1.40790240596571       -2.50770137768002
H           -8.80099398680135       -0.98987757994808       -4.66734362665126
H           -7.37889610432248       -0.06625429028295       -5.20549673374030
H           -8.46330809559913        0.61022182394783       -3.96788818065647
C           11.59737175326540       -2.05948043764175        0.24377307325018
C           10.19759686110451       -1.83736482791259        0.03316763037714
N            9.07962119557017       -1.65877556181612       -0.13608027834219
H           11.84712664288401       -3.08496389887772       -0.02580447878292
H           11.83868820838103       -1.89092944667208        1.29253817150662
H           12.17121811300733       -1.37150016326641       -0.37601819473686
C            2.21966532696997        6.97471723454338        3.02120532895248
C            1.36031905281863        6.43558716000859        2.01364885999742
N            0.67243666551750        6.00454441049177        1.20621877039568
H            2.08972739378500        8.05529043526323        3.07081968908673
H            3.25571119729239        6.74490826971511        2.77490106659335
H            1.96825819613516        6.53428935762830        3.98540608837531
C           -3.67523025593728        5.32377560606316        4.29658870555839
C           -2.53636597231427        4.62845106108486        4.81843083654659
N           -1.62471767929935        4.07476923140932        5.23417538964421
H           -3.37993869683371        5.89101893593623        3.41483181353030
H           -4.06331125824164        6.00419920970451        5.05374982820197
H           -4.44659176370051        4.60407471015253        4.02562169926286
