121
 energy: -174.079856475486 gnorm: 0.000085619289 xtb: 6.6.0 (83090be673e2468c27fcd74d519548d8d51bd8df)
H           -3.91776872140800       -2.58410227739377        1.22381266752494
H           -1.38213620015756        1.43328637228585        4.63104249913351
C           -2.16267748256413        3.98938515445128       -0.25657812703172
H           -2.10463167451117        1.20738270825779        3.01716458254586
H           -3.22243331745567       -2.34927030588431        2.84224796288015
H           -1.06285339238465        2.60728917429223        3.33141010906819
N           -1.17068684374360        1.64272914278321        0.05997658375105
H           -3.22526005503550        3.91071654849591       -0.48783911662072
H           -1.64457121848267        4.48716909665823       -1.07738110915241
H           -2.02415645186553        4.56282471917513        0.65923339600199
N            2.18760480539856        1.51774357559341       -0.36933969597151
C            3.06042125755085        2.22718452990881       -0.15940586074517
C           -1.60953805682271        2.69108208756831       -0.08321122185208
C            4.16075610908702        3.09379172953903        0.10311320411366
Na           0.47220203820561       -0.07798416365297       -0.25014175980937
N           -0.24802949472051       -0.43389918552924       -2.58374333602687
C           -0.47731002757057       -0.17332113719514       -3.67422748481248
C           -0.76620072962372        0.14432565571078       -5.03411557399434
H            4.40756041841190        3.66223227254826       -0.79168525016514
H            5.01888592981674        2.48883844300865        0.40352138991791
H            3.90199375586860        3.77589750769324        0.91152727885237
N            2.27351162581048       -1.75008995174754       -0.37993435324921
C            2.35031373912926       -2.10179514639616        0.70624482163835
C            2.45701109625239       -2.55081000003615        2.05320096874754
H            3.50373728920769       -2.71053823121085        2.30524124574975
H            1.90401749112585       -3.48228719029052        2.16089350300237
H            2.02689366737456       -1.78988296414902        2.70153076832326
H           -0.03767462247415        0.87138725655495       -5.38991666750959
H           -1.77125176033274        0.56232547215375       -5.09156475912820
H           -0.71042025024384       -0.75592618916159       -5.64422338479654
N            0.81304565984155        0.16154429803952        2.84549712943843
C           -0.09417490770681        0.79087843759442        3.14761931717320
C           -1.22687534212021        1.55391759682486        3.55970176757182
C           -2.03557894921130       -1.74709121069660        1.25783577777646
C           -3.32097574838009       -1.91889355793678        1.84736430833104
H           -3.81087538727169       -0.94645609433869        1.91664638961842
N           -1.01112493580478       -1.60051929277138        0.76994227848254
C           -0.31191295002642       -3.97705793376753       -1.49659831067993
C            0.46194668964113       -4.61764328293242       -0.48511200427421
N            1.08426008556482       -5.14434614705943        0.32067967019808
H            0.00823552695004       -2.93889736701445       -1.58321396682862
H           -1.36676595470320       -4.00149558653007       -1.22392688426829
H           -0.16730436249633       -4.49221791713770       -2.44494397103219
C            3.45883515256865       -0.29149175126866       -3.30425227903710
C            2.83018642621944        0.78125701406670       -4.00142081837392
N            2.33177033007709        1.63801783147585       -4.57729728511905
H            3.42756456229542       -1.19152483929913       -3.91623522574176
H            2.93081711858547       -0.46977626555657       -2.36758202652616
H            4.49528054773301       -0.03339954641195       -3.09280647229692
C            0.84103505841370        6.30331110298582        3.02214321596588
C           -0.32189242301607        5.48429990699122        2.95554371574384
N           -1.25773004938296        4.82352041026661        2.89593943857979
H            0.72702511218138        7.03931876415527        3.81691845392064
H            0.98009206620233        6.81274667508799        2.06925580070600
H            1.71055291127898        5.67673397582140        3.22904342701431
C            1.05586409296418        4.67083955004975       -4.78704023817496
C            0.31830802296157        4.92811904696752       -3.59185919448593
N           -0.27416733338885        5.13651609200302       -2.63349573432728
H            1.85629391511316        5.40259208417242       -4.88741645685895
H            0.39097743954691        4.74103150407111       -5.64684708668965
H            1.48428057559575        3.66833780935262       -4.73559515583959
C           12.51352072999797       -1.44175041024326       -2.22515391014943
C           11.27272359419572       -1.21201267071438       -1.55037660918928
N           10.28038515354453       -1.02952916685257       -1.00954987245655
H           12.31831642659054       -1.72207685711900       -3.25956434453792
H           13.05298767981748       -2.24615839215762       -1.72635421717074
H           13.11348576145517       -0.53273156079187       -2.20195478600473
C           -6.96375286030220       -1.47564918981466        2.16329562180315
C           -6.90787722398170       -1.30381370951404        0.75220000546612
N           -6.84341660252881       -1.16044372749804       -0.38441605220876
H           -7.99119060108236       -1.37015450240152        2.50801902053391
H           -6.33757584307142       -0.71751509338750        2.63329866025602
H           -6.59471415460853       -2.47105823842881        2.41813912140238
C           -3.81196512987804        0.02462380898794       -1.25270630702101
C           -3.80084118295086        0.30476431367974       -2.65122011414120
N           -3.80684901640196        0.51622375490653       -3.77754793250895
H           -2.90729220914777       -0.52147686699342       -0.98947595957272
H           -4.69410410960012       -0.56416910929643       -1.00058261670177
H           -3.83680109950934        0.95685984113113       -0.69125772519398
C           -4.49223082463513        3.59707900215146        2.51967389650869
C           -4.52586615801350        2.18761155689253        2.32324449244660
N           -4.54732024674138        1.05065943522076        2.17359180400127
H           -5.11543944179768        3.86308044045846        3.37242398088557
H           -4.87270159663230        4.08362370853149        1.62214845155487
H           -3.46650767567537        3.91709327674449        2.70442717679385
C           -6.99945849210758        1.81894340688858       -1.96845975165314
C           -6.13964061902052        2.68160687117951       -1.22544846959327
N           -5.44165750024038        3.36574637173620       -0.62722644886308
H           -7.06999094692039        0.85659935073702       -1.45855480488803
H           -6.58471118771484        1.67076512425313       -2.96480046945134
H           -7.99016316242153        2.26431990149610       -2.04626949812658
C           -4.14542562189467       -6.13397665282125        1.33605792086378
C           -5.04164918813123       -5.23495121066758        1.99026437121199
N           -5.75124904641860       -4.49501400383787        2.50177761628668
H           -3.28865051693094       -6.33271563327594        1.97837455014092
H           -3.80671096283191       -5.66983909126643        0.40847951785925
H           -4.65884231882864       -7.06784611425053        1.11219481272421
C           -5.44211395274561       -2.97202608431708       -2.77008384817073
C           -4.48562058789921       -3.49848482415363       -1.85275096081922
N           -3.72368182790312       -3.91473825135142       -1.10422782150573
H           -5.90240021044447       -3.78471143072162       -3.33012273189568
H           -4.94947289942854       -2.28474903101473       -3.45721482711141
H           -6.20853167621409       -2.43588878582444       -2.20821361008204
C            7.74018580508046       -1.11424824281990        1.18856917592523
C            6.99135620033976        0.09410916706438        1.23384373101455
N            6.38820122781541        1.06922708006091        1.28016839485934
H            8.47348039348287       -1.06058776458270        0.38367944480428
H            7.06971301586001       -1.95669407281188        1.01549050189604
H            8.25881640481401       -1.25619499277965        2.13596759800576
C            5.19148239910540        2.56012555889842        4.04411717772548
C            4.20926118424198        3.55872530116116        3.77332200593020
N            3.42028073354386        4.35916351551325        3.54904960007452
H            5.54377484942958        2.12926313979382        3.10484774356270
H            4.75008154627715        1.77450433559254        4.65579901116479
H            6.03099288180159        3.00854567357910        4.57394296346134
C            4.25092004867298       -5.90008124044573        0.88093238745102
C            5.12293411868502       -4.77228039132938        0.95985150792356
N            5.82216539758653       -3.86741461169897        1.03410235569806
H            3.23170722192372       -5.56421711540549        0.67887179476424
H            4.27252619658469       -6.44300175007148        1.82508410714682
H            4.57877996190767       -6.55811412367235        0.07742050449906
