  6
 Etot=   -8.6885009614 g norm=  0.00025337
 C         -1.3229495470        0.0000036839       -0.0000018427
 C          0.1137251859        0.0000012464       -0.0000006200
 N          1.2563101344       -0.0000007403        0.0000003727
 H         -1.6870391052        0.7732502149       -0.6759488258
 H         -1.6870417931        0.1987682396        1.0076217613
 H         -1.6870427610       -0.9720055908       -0.3316793723
