  61
        -11.05943846
 Ca        -0.4151367368        0.0010847216        0.9610006151
 C          0.3837173160        2.3279580760        0.2015781781
 C          0.1080579417        2.6419977972        1.5692040075
 N         -0.0705878091        2.9398741353        2.6942446983
 H          0.7829601882        3.2040281715       -0.3295039938
 H         -0.6018845892        1.9581869868       -0.4013582287
 H          1.2022364276        1.4323704601        0.1012393113
 C          1.3469272534        0.1821337987        2.9388502389
 C          1.5019633158       -1.1972059043        2.5947390565
 N          1.7014460928       -2.3323764718        2.3557998840
 H          1.9983179396        0.4628418572        3.7806232119
 H          0.2038574467        0.4550536129        3.2484226018
 H          1.6558191064        0.8854504609        2.0063105937
 C          1.1689524555       -1.0689900942       -1.0718237583
 C          0.0710692222       -0.4382743327       -1.7382672353
 N         -0.7918721181        0.0470370199       -2.3772256851
 H          1.0457186428       -2.1609071426       -1.0019532023
 H          1.3453640789       -0.6350978350        0.0586119367
 H          2.0975267192       -0.8752060744       -1.6308080554
 C          3.9004271959        1.6472469457       -1.7872111505
 C          3.5789273918        1.2334636239       -0.4878809823
 N          3.2854031162        0.8720039702        0.5699062629
 H          4.7049609762        2.3835268424       -1.7795471081
 H          3.0383982537        2.1024750108       -2.2782553393
 H          4.2241038708        0.8007174421       -2.3964644256
 C         -2.9123297089        1.9262840832        3.2258939147
 C         -2.2089325255        0.7888690253        2.7331750508
 N         -1.5913822400       -0.1355374376        2.2745188482
 H         -3.6967506464        1.6436738335        3.9288043108
 H         -3.3749031379        2.4790401160        2.4059308660
 H         -2.2304759033        2.6105053364        3.7342443722
 C          4.1952511971       -2.1869887693        0.5622410870
 C          4.2034688802       -1.8703014453       -0.8000995575
 N          4.1596283041       -1.5746992576       -1.9165489103
 H          4.6586041384       -1.3967234911        1.1555087009
 H          4.7181072998       -3.1216499648        0.7680202203
 H          3.1660234722       -2.2922542144        0.9057360276
 C         -1.0967586198       -3.1955603981        2.0568868878
 C         -0.8875637829       -2.6044668217        0.7377776897
 N         -0.8340328888       -3.1870476477       -0.3164467699
 H         -1.9369377055       -3.8911814864        2.0350862404
 H         -1.3027068841       -2.4246129045        2.8019676134
 H         -0.2042166560       -3.7425178766        2.3676095581
 C         -2.9777568589       -0.2437676680       -0.2475892458
 C         -2.7713235368        1.1637596352       -0.1368020093
 N         -2.6882556625        2.3356558859       -0.0928340658
 H         -1.9307749459       -0.8531909918       -0.3522306286
 H         -3.5330103639       -0.4579575103       -1.1731176956
 H         -3.5440053739       -0.6599048595        0.5985602981
 C         -1.2227050613        2.9650645801       -3.1008126220
 C          0.1355017480        3.1315676482       -2.7958352769
 N          1.2489343898        3.2583408524       -2.5123523291
 H         -1.4424639671        1.9230178809       -3.3415210880
 H         -1.5166337623        3.5763416673       -3.9550050008
 H         -1.8540431363        3.2442554866       -2.2544966696
 C         -2.0853315478       -2.8388465729       -3.1164392437
 C         -3.3339323253       -2.4062671180       -2.6514339870
 N         -4.3506056214       -2.0300796968       -2.2498596848
 H         -1.4478654185       -1.9893822817       -3.3680553944
 H         -2.1833956662       -3.4593817803       -4.0074175879
 H         -1.5689697636       -3.4246890759       -2.3541801597
