  61
        -10.34614470
 H          3.1731934554        0.4293603034       -1.6964427936
 C          1.4804503159       -0.6910454946       -2.1534783586
 H         -4.7003357591        0.2939377881       -0.2072199837
 H         -4.6318540370       -1.2265732755        0.7285080717
 C          0.0834301087        0.9699228696        2.1929488890
 N          0.5571619653        0.1504557571        2.8991711256
 C         -3.1426971307        0.1905022672        1.2147506872
 C          2.7260473082       -0.1156038314       -2.5310471673
 H          2.6109068576        0.5809326589       -3.3623724845
 C          1.1082342635       -2.3281184649        0.9712602692
 H         -0.9747092981       -4.1807477956       -2.3596039647
 C         -2.0577639036        1.5361326986       -1.9790461691
 H          3.4397042886       -0.8851155945       -2.8304438139
 N          1.2324102693       -3.4217404005        1.4606888681
 N         -2.1900763466        2.4105302235       -1.1966780209
 C         -2.4407103681       -2.7465291012       -1.9094408502
 N          0.4365159539       -1.1933964818       -1.8367266588
 C          2.1201469460       -1.2787799140        0.9074815498
 N         -3.0285262237        0.8058335317        2.3324076766
 C         -1.4378894349       -3.6808346627       -1.4973853948
 H         -1.8620303473       -4.4590042541       -0.8451528297
 H          2.4309244493       -0.9722100386        1.9168698922
 H         -0.5507432858       -3.1319219391       -0.8779302843
 H          1.7057714725       -0.3715601724        0.3746926777
 H          3.0000190715       -1.6541353208        0.3676857059
 C         -1.9434081736        0.5544008854       -3.0141384208
 H         -1.4040209207       -0.4591086596       -2.6276870868
 H         -1.3579167898        0.9332108840       -3.8637145595
 C         -4.0201570425       -0.4440070051        0.2488603058
 H         -3.4035843329       -0.9269458098       -0.5730905093
 H         -2.9308862501        0.2565012588       -3.3965217540
 K         -0.8582370386       -0.7138723115       -0.2116693059
 C         -0.4578076159        2.0259324606        1.3970568025
 N         -3.2942898856       -2.0156044153       -2.2810869247
 H         -0.6203983867        1.7014655553        0.2361269798
 H          0.2264778874        2.8846846045        1.3987059447
 H         -1.4308429757        2.3741692396        1.7770874298
 C         -1.4761538377       -2.1938588333        2.6349288187
 C         -2.0568846599       -2.7328798027        1.4069868348
 N         -2.8066018142       -3.6686040355        1.2977373344
 H         -0.8294555487       -2.9396700833        3.1196292369
 H         -2.2634753107       -1.8965237270        3.3421569217
 H         -0.8573708360       -1.2857426031        2.3804437256
 C          7.0086801933       -1.7231388408        0.1324443367
 C          5.7185551559       -1.3103421204       -0.2303652569
 N          4.6532145533       -0.9731470454       -0.5242857108
 H          7.2724535859       -1.3657857115        1.1297033401
 H          7.7568414868       -1.3412732616       -0.5648387156
 H          7.0879263618       -2.8120054183        0.1393860172
 C          3.1225735572        3.9661938783        0.4478994322
 C          2.6307021080        2.6962405800        0.1139595322
 N          2.2116135013        1.6529308461       -0.1552084023
 H          2.3324554806        4.7183121542        0.3914871906
 H          3.9235092346        4.2734532579       -0.2267170729
 H          3.5193821420        3.9814300773        1.4646042406
 C         -2.0551064377        5.5230103602       -0.3705643694
 C         -0.8368310604        5.0946893527        0.1745805952
 N          0.1620672278        4.7258273772        0.6233648668
 H         -2.7329982459        5.8781694533        0.4077982913
 H         -2.5537306325        4.7082254461       -0.8997699602
 H         -1.9062086074        6.3395015661       -1.0794132568
