  121
        -21.79393839
 H          7.8951633111       -0.9337747571       -0.5158394634
 C          9.5378601681       -0.4032893851        0.7542025344
 H          6.8154908309        3.9038066146        0.9174823597
 H          6.5292972197        4.4895867094        2.6053963883
 C          5.6815258855       -0.3608420511       -0.9501716859
 N          6.0827388332       -1.0784682608       -1.9351711385
 C          5.5984817333        2.6432095345        2.1363118251
 C          8.8018397738       -1.3982630077       -0.0027227408
 H          8.4490505330       -2.2135747992        0.6519095331
 C          9.3264223836        1.3334589511       -2.1871172979
 H          9.7402131231        4.3254679488        0.4968830524
 C          6.8038584169       -0.4822587421        2.3927606373
 H          9.4603579737       -1.8336938788       -0.7720380879
 N          9.4691961206        2.5184982596       -2.3509713626
 N          6.2124064666       -1.5989728205        2.1900791183
 C          9.0389242147        3.0155181616        1.9978665586
 N         10.5826168135       -0.2031467780        1.4675816677
 C          9.8781268956        0.3252418655       -3.0689612928
 N          4.7587735714        2.3722177851        2.9558142268
 C          9.9117625632        3.3046380275        0.8788783795
 H          9.7235859382        2.5272375145       -0.0341786425
 H          9.6296777364       -0.6814930878       -2.7330679841
 H         10.9635583403        3.2396035858        1.2038995527
 H         10.9629646892        0.4334880204       -3.1091106980
 H          9.4860692774        0.4696327071       -4.0766925948
 C          7.5707231379        0.3012607886        3.3386227173
 H          8.5147329957       -0.2066819903        3.5965857420
 H          6.9908406642        0.4412448245        4.2662464334
 C          6.0574513955        3.9805728463        1.7530788845
 H          5.2154356160        4.5927076323        1.4008478203
 H          7.8204372834        1.3184566238        2.9012420510
 K          7.4255042409        1.3955177786        0.3378677001
 C          4.5837057574        0.0715552115       -0.1050421849
 N          8.7768958408        3.2316525862        3.2336113919
 H          4.9740142014        0.6417359791        0.7983927018
 H          4.0092315430       -0.8049943187        0.2416956039
 H          3.8921021795        0.7313638334       -0.6565139879
 C          6.5371460683        2.6890099254       -2.0964497197
 C          5.4893356652        2.9708721408       -1.1273414414
 N          4.2419565695        3.0720481910       -0.8608064659
 H          7.5352574767        3.0900994823       -1.7413997949
 H          6.3006643294        3.1453325685       -3.0745879879
 H          6.6540822735        1.5695236458       -2.2298052636
 C          8.4436664913        7.2296849926       -1.8227503165
 C          8.1683205205        6.1281897479       -0.9984024474
 N          7.9414527505        5.2187521147       -0.3212247706
 H          7.7106393547        8.0258584842       -1.6774215310
 H          8.4236547627        6.9486258817       -2.8777216525
 H          9.4309613147        7.6449427559       -1.6100834727
 C         14.9896940924        2.4791874806        0.5696413122
 C         13.7392169698        3.1082875435        0.5281589485
 N         12.7018125883        3.6162818508        0.4961295196
 H         15.5021754233        2.6632502506        1.5155683347
 H         15.6399096288        2.8260994216       -0.2354477732
 H         14.8717311393        1.4005915686        0.4608771870
 C         10.0538245392       -4.9430942052       -3.7000899624
 C          9.7481468961       -3.7801803846       -2.9827341995
 N          9.5042928202       -2.8151507681       -2.3969229503
 H         10.9760932668       -5.3879356395       -3.3253072969
 H         10.1962955968       -4.7333790305       -4.7616584644
 H          9.2635004331       -5.6903310556       -3.6102214425
 C         12.4954313341       -0.5944899110       -6.3475783975
 C         12.6017658817       -0.5355071686       -4.9501421168
 N         12.6713422188       -0.4845177175       -3.7975867272
 H         11.4560890374       -0.7342497179       -6.6512239065
 H         13.0773343421       -1.4224445854       -6.7570962593
 H         12.8539094664        0.3266266144       -6.8113360041
 C          1.2734132671       -1.6746381937        3.3898280896
 C          1.8420130768       -1.4212306065        2.1354717480
 N          2.3230507274       -1.2035260369        1.1082163598
 H          1.2431227083       -2.7430601424        3.6098488942
 H          0.2541330691       -1.2905177525        3.4550536494
 H          1.8604452988       -1.1912699213        4.1711085543
 C          3.9752198694        1.1447995581        5.7193443125
 C          2.9974929151        0.1856708601        5.9980270444
 N          2.1899491339       -0.6153742594        6.2041425944
 H          4.0060769102        1.3550220035        4.6499986443
 H          4.9598488890        0.7872218221        6.0205603278
 H          3.7825141971        2.0834007441        6.2410869788
 C         14.3968773849       -1.6816219140       -1.5416905653
 C         15.1711404169       -1.0466651196       -0.5629719363
 N         15.7996598777       -0.5052630219        0.2422736883
 H         15.0080529477       -2.3076105489       -2.1941666831
 H         13.8982509639       -0.9385588141       -2.1650160053
 H         13.6285206954       -2.3149010633       -1.0950148687
 C          8.4901129669        2.5569412062        7.6828522838
 C          7.7062242327        1.8032239912        6.7966937792
 N          7.0622518560        1.1839923485        6.0640724851
 H          9.5532480616        2.4438897278        7.4632444299
 H          8.3304374315        2.2453029860        8.7168355561
 H          8.2502854278        3.6196213267        7.6164194384
 C        -35.9460204514      -18.6483832887        4.5076904023
 C        -35.7443486246      -17.7151626124        5.5361772514
 N        -35.5769746934      -16.9463969965        6.3840719955
 H        -36.7937382095      -19.3004420855        4.7263255604
 H        -35.0677005718      -19.2819946718        4.3709233296
 H        -36.1471504396      -18.1515619788        3.5567538260
 C        -51.7240391106        8.9086269179        7.8373112885
 C        -52.5091013164        7.7847769612        8.1372962834
 N        -53.1573183992        6.8587104497        8.3825768575
 H        -51.2320698402        9.2970251040        8.7310492397
 H        -52.3301915758        9.7132689729        7.4168415540
 H        -50.9464357199        8.6653479779        7.1108724062
 C        -62.9419862987        3.8472993883      -12.5500818113
 C        -64.0745619575        4.3611956031      -11.9000617726
 N        -65.0084246172        4.7860439347      -11.3659269393
 H        -62.3879021752        4.6363163126      -13.0619846443
 H        -63.2195659379        3.1001002845      -13.2959193254
 H        -62.2614654981        3.3711512780      -11.8417011510
 C          7.1801685376       -1.3640222218       -7.0059443602
 C          8.3310231430       -0.8306655301       -6.4057989498
 N          9.2787756664       -0.3940383520       -5.9087471760
 H          6.6106685472       -1.9720100506       -6.2999781017
 H          7.4362941776       -1.9979507684       -7.8572566494
 H          6.5209058088       -0.5730633004       -7.3690845453
 C         13.5391233243       -9.1658028100       -4.0578157984
 C         12.8615866526       -7.9586300854       -3.8281598478
 N         12.3024554042       -6.9647725885       -3.6386336168
 H         13.2086142234       -9.6340272964       -4.9869465725
 H         13.3643914266       -9.8771324714       -3.2484147674
 H         14.6166888282       -9.0068722558       -4.1322062298
