  61
        -11.07642358
 K         -2.6732815053        0.5764301033        0.9989554831
 C         -2.9583656168       -2.5785705678        1.7126799979
 C         -3.8675338691       -1.8403941559        2.5321657865
 N         -4.6307373647       -1.2832766927        3.2411984696
 H         -2.2311044147       -1.8510022471        1.0688282885
 H         -3.4943841480       -3.1915783453        0.9748104253
 H         -2.3181472453       -3.2464285717        2.3087750628
 C         24.2162978904        1.7988738731        0.3241271245
 C         24.8102172556        0.6406434943       -0.2003145406
 N         25.3010158616       -0.3134165919       -0.6326753779
 H         23.8662203749        2.4588238560       -0.4717698986
 H         24.9231064607        2.3630612538        0.9354238882
 H         23.3578779853        1.5532500223        0.9521392855
 C          0.4789200305       -0.3383934048        1.1621593623
 C         -0.3765071457       -0.5686208619        2.3058815057
 N         -0.4951504674       -1.0146723216        3.5013628591
 H          0.9238851213       -1.2907978489        0.8316960827
 H          1.2997888226        0.3501481059        1.4188115618
 H         -0.1481790019        0.1362150464        0.2424829020
 C         -2.7598532016       -0.9493942557       -1.8090662680
 C         -4.0298348544       -0.5882288638       -1.1970978326
 N         -5.3039097494       -0.6939737310       -1.2896794893
 H         -2.7000257285       -0.5589392250       -2.8386143748
 H         -2.6550799411       -2.0472038678       -1.8555735068
 H         -1.8267917644       -0.4975199490       -1.1720180402
 C         -2.7917827164        1.1862522370        3.8395657015
 C         -2.7960380716        2.4670805508        3.1542497643
 N         -3.1853387790        3.6760743199        2.9989369847
 H         -2.8323485533        1.3231244300        4.9359785774
 H         -1.8462212509        0.6250709340        3.5704221899
 H         -3.6729400334        0.5554750706        3.5119721526
 C         -5.8826193100        0.9098162111        1.3201209173
 C         -5.3852347695        2.0203293687        0.5661835431
 N         -5.0710664739        2.9688641667       -0.0616421443
 H         -6.5453727174        0.2783506053        0.7079805081
 H         -6.4601898398        1.2446265578        2.1958325078
 H         -5.0359551581        0.2512818937        1.6959547763
 C         -2.0711227006        3.2695716385       -0.1520565264
 C         -1.0381659274        2.4562503556       -0.7291983992
 N         -0.1661339523        1.8290446730       -1.2199308459
 H         -3.0831559547        2.8791024048       -0.4508023302
 H         -1.9978336820        4.3203237490       -0.4812561046
 H         -2.0350950003        3.2474099616        0.9743011698
 C          4.1015513954       -2.8086908866       -1.8282533588
 C          2.9596291764       -2.3650523188       -1.1436972521
 N          2.0214564095       -1.9998230687       -0.5763599656
 H          3.8606540806       -3.0978077025       -2.8531798490
 H          4.5463468214       -3.6754955955       -1.3353784500
 H          4.8628467643       -2.0274219085       -1.8746675662
 C         -6.2268145830        2.3739028992       -5.0064357226
 C         -4.8963641186        2.7852873246       -4.8328906727
 N         -3.7990453979        3.1209772143       -4.6878860928
 H         -6.8149211793        2.5456370874       -4.1030052199
 H         -6.2847244465        1.3093562808       -5.2411345694
 H         -6.7064129198        2.9191023913       -5.8215685271
 C         -3.0139035478       -6.3003469003       -1.8562498990
 C         -2.8561095244       -5.0314334326       -1.2780580219
 N         -2.7284326150       -3.9883862350       -0.7973282994
 H         -2.8513694555       -6.2664117453       -2.9355230501
 H         -4.0193918620       -6.6905466882       -1.6854000746
 H         -2.3048608300       -7.0172557976       -1.4370786648
