  61
        -11.14175176
 K         -1.1886787341       -0.5515715028        0.3947828064
 C         -2.8460026265        2.1220068307       -0.2233224499
 C         -2.8233402489        1.9587702123        1.1976850289
 N         -2.8443986733        1.9042512586        2.3764688559
 H         -2.1222730212        1.3318579049       -0.7956185922
 H         -2.5017783851        3.1286237660       -0.4949728328
 H         -3.8573861600        1.9884587997       -0.6357007168
 C          0.3503797371        4.9493329478       -1.8644087886
 C         -0.9705192232        4.5281846464       -2.0697156613
 N         -2.0624283274        4.1789455402       -2.2239814628
 H          1.0071649890        4.5937695330       -2.6600281511
 H          0.7369215160        4.5628690442       -0.9196377362
 H          0.4221054837        6.0372011675       -1.8324780565
 C         -2.8598408223       -1.8185493139       -1.6961499577
 C         -3.7347859717       -1.1521847218       -0.7432296060
 N         -4.7706049468       -0.4414448489       -0.4914871695
 H         -2.1804934561       -1.0709965870       -2.1869830907
 H         -3.4408499160       -2.3175249754       -2.4914209821
 H         -2.2094033112       -2.5730974864       -1.1672398311
 C          1.0687394401        0.5788077273       -1.4370345005
 C          0.6375244820        1.5756674889       -0.4742292296
 N          0.9227201329        2.6546248464        0.1521816419
 H          2.0620560829        0.1874842154       -1.1640345872
 H          1.1173514856        0.9973215980       -2.4563849534
 H          0.3288707739       -0.3889538529       -1.4640732728
 C         -3.3533609779       -1.0840002993        2.7583296455
 C         -2.0751228837       -1.5679029189        3.1864715229
 N         -1.0545756618       -1.9852363108        3.6101953486
 H         -3.7182956569       -0.2775301449        3.4116231239
 H         -4.1105848818       -1.8808498463        2.7524152691
 H         -3.3123885629       -0.6204177428        1.6379775919
 C          0.2402829976        0.9172772260        2.8972908939
 C          1.2574556995        0.1317504186        2.2698179513
 N          2.1611099105       -0.4723326295        1.8189506994
 H          0.5036223303        1.9848566270        2.9095120667
 H          0.0672366225        0.5978423922        3.9353736154
 H         -0.8221163867        0.8307514284        2.3193168344
 C          0.5036263754       -2.9299564426        0.9895285939
 C         -0.0910675713       -3.3631046790       -0.2409545319
 N         -0.5532608330       -3.7814079252       -1.2401821393
 H          1.0969422493       -1.9848265020        0.8375246763
 H          1.1822242466       -3.6931981966        1.4024224710
 H         -0.2861670691       -2.7105899559        1.7663450321
 C          1.0033061675       -2.8377408313       -3.7125270573
 C          0.0926438627       -1.7777066993       -3.6080851848
 N         -0.6545534991       -0.9023476796       -3.4940610413
 H          1.9841905037       -2.5508294421       -3.3291789333
 H          1.1253118331       -3.1594258495       -4.7481850331
 H          0.6626368003       -3.6964618050       -3.1299827998
 C          4.6011270601       -1.6736624467        0.3348991572
 C          3.7269880891       -1.6270188981       -0.7600641997
 N          2.9974401770       -1.5737571474       -1.6545749255
 H          4.1509491985       -1.2053614593        1.2128087934
 H          5.5252368627       -1.1329450513        0.1218635518
 H          4.8626901409       -2.6995548816        0.5974970069
 C          3.7161653459        2.4597954351        1.1258009184
 C          4.8361890736        1.6228967174        1.1144678872
 N          5.7543236836        0.9213573685        1.0938500551
 H          3.8947288174        3.3757433026        0.5610152257
 H          3.4321176429        2.7392054461        2.1410765750
 H          2.8674722554        1.9501527732        0.6719261072
