  61
        -11.05634523
 K          5.7012571894        1.4365720528        0.8332515861
 C          5.6444078049        4.5874844110       -0.1664126248
 C          4.4310858664        4.2489240100        0.5125993895
 N          3.4050499603        4.0368055339        1.0613874356
 H          6.3843518337        3.6324283316       -0.2582279933
 H          6.1965724355        5.3741049001        0.3676005848
 H          5.4481645642        4.9474337680       -1.1864820225
 C        -25.6744687331       -1.4850071800        0.0626484023
 C        -25.6726526833       -2.7583197610       -0.5542601338
 N        -25.3189618078       -3.5100456918       -1.4951481302
 H        -26.3084478470       -1.4821499093        0.9540943745
 H        -26.0509762989       -0.7332616634       -0.6375752968
 H        -24.5776092472       -1.1724955172        0.3793936319
 C          6.8978365512        0.6991385575       -2.1789864564
 C          5.8332525042        1.6694288141       -2.0664863189
 N          5.0474146510        2.4680606565       -2.6853475024
 H          7.9071953626        1.1875490143       -2.6253976385
 H          6.5934617837       -0.1074406588       -2.8646607006
 H          7.1240526488        0.2530622424       -1.1697890100
 C          8.8679770017        1.9504616332        1.6813811372
 C          7.9389423715        3.0525497293        1.8160660032
 N          7.6740081880        4.2165137208        2.2811517438
 H          9.1879921658        1.5056575019        2.7548666968
 H          9.7891663400        2.2753244244        1.1736843646
 H          8.3948132287        1.1291274142        1.0734270802
 C          2.7406112181        1.1183608575       -0.4728759863
 C          3.2891588329        0.0158118638        0.2985805032
 N          3.1301276254       -1.1965551716        0.6847903012
 H          3.5138822857        2.0515464825       -0.5069246916
 H          1.7927361172        1.4672722808       -0.0316990507
 H          2.5420413793        0.8031686167       -1.5103156978
 C          4.8130138219        2.4825059810        3.3648361312
 C          4.8786800586        1.1005554891        3.7331365868
 N          4.9412282661       -0.0302038716        4.0620507543
 H          5.8364078154        2.8489958954        3.0295541509
 H          4.4691662126        3.1207500784        4.1968550836
 H          4.0950099519        2.6134597124        2.4918183189
 C          6.1923617908       -1.3561342050        1.5155192599
 C          7.4191317267       -1.0643386905        0.8405470773
 N          8.4312924383       -0.8135516727        0.2882340780
 H          5.3171331843       -1.1734761844        0.8169512407
 H          6.0680855280       -0.6635999739        2.4048831472
 H          6.1462495156       -2.3979891614        1.8753018470
 C          8.1841944545       -4.1171568496       -3.9557166763
 C          7.6369601536       -2.8398776849       -3.7593636675
 N          7.1904282636       -1.7858697463       -3.5995991791
 H          7.4045090968       -4.8534888647       -4.1610635782
 H          8.7333053860       -4.4521751044       -3.0730950611
 H          8.8768898643       -4.1239287708       -4.7997707087
 C        -27.2664628825        3.4880565632       -1.3241669332
 C        -26.8190505380        2.2113626999       -0.9507662533
 N        -26.4498787994        1.1599536898       -0.6442154091
 H        -27.4268140222        3.5510281128       -2.4023495944
 H        -26.5404588495        4.2566858787       -1.0517211006
 H        -28.2102390734        3.7351186731       -0.8338439001
 C          5.0369882264       -8.5040498875       -0.0121281092
 C          5.4013622597       -7.1605631187       -0.1901107991
 N          5.7030186962       -6.0536477437       -0.3363229364
 H          5.9079783497       -9.1602174019       -0.0625753986
 H          4.3329492858       -8.8286240520       -0.7806990595
 H          4.5616680397       -8.6592071848        0.9582833863
