55
-11.07642358
K     -2.67328    0.57643    0.99896
C     -2.95837   -2.57857    1.71268
C     -3.86753   -1.84039    2.53217
N     -4.63074   -1.28328    3.24120
H     -2.23110   -1.85100    1.06883
H     -3.49438   -3.19158    0.97481
H     -2.31815   -3.24643    2.30878
C     -3.01390   -6.30035   -1.85625
C     -2.85611   -5.03143   -1.27806
N     -2.72843   -3.98839   -0.79733
H     -2.85137   -6.26641   -2.93552
H     -4.01939   -6.69055   -1.68540
H     -2.30486   -7.01726   -1.43708
C      0.47892   -0.33839    1.16216
C     -0.37651   -0.56862    2.30588
N     -0.49515   -1.01467    3.50136
H      0.92389   -1.29080    0.83170
H      1.29979    0.35015    1.41881
H     -0.14818    0.13622    0.24248
C     -2.75985   -0.94939   -1.80907
C     -4.02983   -0.58823   -1.19710
N     -5.30391   -0.69397   -1.28968
H     -2.70003   -0.55894   -2.83861
H     -2.65508   -2.04720   -1.85557
H     -1.82679   -0.49752   -1.17202
C     -2.79178    1.18625    3.83957
C     -2.79604    2.46708    3.15425
N     -3.18534    3.67607    2.99894
H     -2.83235    1.32312    4.93598
H     -1.84622    0.62507    3.57042
H     -3.67294    0.55548    3.51197
C     -5.88262    0.90982    1.32012
C     -5.38523    2.02033    0.56618
N     -5.07107    2.96886   -0.06164
H     -6.54537    0.27835    0.70798
H     -6.46019    1.24463    2.19583
H     -5.03596    0.25128    1.69595
C     -2.07112    3.26957   -0.15206
C     -1.03817    2.45625   -0.72920
N     -0.16613    1.82904   -1.21993
H     -3.08316    2.87910   -0.45080
H     -1.99783    4.32032   -0.48126
H     -2.03510    3.24741    0.97430
C      4.10155   -2.80869   -1.82825
C      2.95963   -2.36505   -1.14370
N      2.02146   -1.99982   -0.57636
H      3.86065   -3.09781   -2.85318
H      4.54635   -3.67550   -1.33538
H      4.86285   -2.02742   -1.87467
C     -6.22681    2.37390   -5.00644
C     -4.89636    2.78529   -4.83289
N     -3.79905    3.12098   -4.68789
H     -6.81492    2.54564   -4.10301
H     -6.28472    1.30936   -5.24113
H     -6.70641    2.91910   -5.82157

