  121
        -23.11722788
 Mg        -0.0854032115       -0.5774529685       -0.8377417022
 C          0.7923054258       -2.1210760246       -2.4006161981
 C         -0.6211760708       -1.8589878823       -2.4421779163
 N         -1.7942916909       -1.6286595731       -2.4592811180
 H          0.9950122143       -3.1962122276       -2.1861862023
 H          1.4140859278       -1.4709927946       -1.5654919229
 H          1.2717692628       -1.8677344765       -3.3715070671
 C          1.9949804395        0.5654455026       -5.6346356179
 C          0.9541783011        0.4875809569       -4.6991880747
 N          0.1226207850        0.4092563104       -3.9011979946
 H          2.9418023539        0.2686230802       -5.1769702440
 H          2.1110932607        1.5817259661       -6.0160447690
 H          1.8135787376       -0.0920508237       -6.4869380938
 C          6.8600238169        4.3081813868        1.2757544519
 C          5.6841332060        3.6392869769        0.9193715853
 N          4.7082630117        3.1043614699        0.6100677568
 H          7.7497657934        3.7644541902        0.9537878646
 H          6.9315995267        4.4561622502        2.3546143649
 H          6.8834436122        5.2909248861        0.8044013522
 C         -0.2280954990        1.6593464753       -1.6375054822
 C          0.8442899454        1.3829435781       -0.7213557848
 N          1.7497307230        1.1908007569        0.0265628726
 H         -0.9745900170        0.7111724172       -1.8547461104
 H          0.1768094405        2.0102263139       -2.6131825559
 H         -0.8822222907        2.4744949441       -1.2474461212
 C         -4.6647448716        0.1542374893       -0.3901255547
 C         -3.5123471836        0.9343542912       -0.5095066165
 N         -2.5357906353        1.5430711966       -0.5986526099
 H         -5.0326101237        0.1319265528        0.6373807162
 H         -4.4540714985       -0.8733289609       -0.6897497901
 H         -5.4627933741        0.5410314757       -1.0225513513
 C          0.1370460293       -1.5500856510        1.2759058583
 C         -1.2304681812       -1.4814839917        0.8456891120
 N         -2.3703171204       -1.4733573562        0.5219836009
 H          0.1969962831       -1.3569502395        2.3725652928
 H          0.8643134232       -0.7099651948        0.7646208924
 H          0.5711433974       -2.5557361308        1.0873901661
 C         -7.4350159504       -2.8117721525       -1.7294622748
 C         -6.1104624147       -2.8609460025       -1.2733268145
 N         -5.0192056321       -2.8895617097       -0.8946103754
 H         -8.1366243879       -3.0586098087       -0.9307842757
 H         -7.6008807694       -3.5139394343       -2.5483103421
 H         -7.6853590200       -1.8121473126       -2.0904049331
 C         -2.5974221930       -4.6017567732       -0.4122029033
 C         -1.2440851151       -4.2482058425       -0.4557065688
 N         -0.1457051165       -3.8926827596       -0.4997342509
 H         -2.8407220871       -5.3696869034       -1.1483413600
 H         -3.2105065464       -3.7246843229       -0.6276091218
 H         -2.8854518390       -4.9752243155        0.5720133986
 C          4.4792511315       -3.2577712893        1.1818041766
 C          3.3779828512       -2.6557400773        0.5619705835
 N          2.4681191981       -2.1465488487        0.0655030093
 H          4.1867267670       -4.1981228226        1.6475059843
 H          4.8952963824       -2.6158724404        1.9622379046
 H          5.2758641096       -3.4713997711        0.4674539457
 C         -2.1390456782        2.1119200578        2.3940280633
 C         -0.9296566132        1.4077913664        2.3961140306
 N          0.0533387380        0.8015153909        2.3858840388
 H         -2.1932420167        2.8311720299        3.2127287810
 H         -2.9761008683        1.4211385827        2.4994440870
 H         -2.2864235259        2.6523575347        1.4567128252
 C          3.1388305516        1.2313852588        2.7679320848
 C          4.1265426635        0.3193532778        2.3806172762
 N          4.9239463600       -0.4389661087        2.0278970489
 H          3.1809914151        1.4439103000        3.8371855898
 H          2.1501260344        0.8303337384        2.5417430714
 H          3.2453595615        2.1755449740        2.2302852708
 C          4.5719004016        0.4397640439       -0.9144945191
 C          3.6968737297        0.0178298736       -1.9180525169
 N          2.9371664801       -0.3192665351       -2.7196342159
 H          4.4482786069       -0.1828615674       -0.0282551341
 H          4.3535892972        1.4687558576       -0.6266648293
 H          5.6162852868        0.3863039125       -1.2246649044
 C         -7.2362135299        2.4576972047        3.1891517512
 C         -6.0174976646        1.9265670333        2.7521361578
 N         -5.0116799758        1.4891340285        2.3898423654
 H         -7.0884147660        3.2511591850        3.9237662698
 H         -7.8670669555        1.6933233408        3.6462219384
 H         -7.7846863585        2.8818323903        2.3481388743
 C          2.6503771844        4.8733325963       -0.7401551913
 C          1.4621207946        4.4486842927       -1.3425760100
 N          0.4911307184        4.0494016398       -1.8237674120
 H          3.1703510843        4.0106611957       -0.3221757939
 H          2.4624570719        5.5795449138        0.0703122449
 H          3.3172378456        5.3550551995       -1.4572194227
 C        -11.4521744180        5.3435057386        2.3424642164
 C        -10.4347375790        4.4376527726        2.0089441964
 N         -9.5956398393        3.6908278534        1.7381178129
 H        -12.1789504296        4.8904980797        3.0195767876
 H        -11.9915545780        5.6779401124        1.4541754664
 H        -11.0473040598        6.2291298904        2.8359758599
 C          1.8847412941       -5.2875597524        3.8411875877
 C          1.0817599776       -4.2209983959        3.4237224864
 N          0.4437430860       -3.3300486609        3.0602166567
 H          1.5113749840       -6.2425463085        3.4671831393
 H          1.9361835701       -5.3498211964        4.9296661169
 H          2.8984854689       -5.1528236907        3.4632001711
 C          9.3194208518        9.1079201361        0.3981671621
 C          8.5707413544        7.9289439952        0.5236749997
 N          7.9545754203        6.9566152851        0.6247752031
 H         10.3556571357        8.8916532671        0.1317464924
 H          9.3287184971        9.6717500948        1.3328066183
 H          8.9072577147        9.7575228300       -0.3762164304
 C          6.6467196830       -7.0868630871        4.0424302182
 C          5.6557283268       -6.2748121644        3.4717013163
 N          4.8365376372       -5.6137115537        2.9954410063
 H          6.8205806069       -7.9812995439        3.4409619917
 H          6.3627999144       -7.4127677136        5.0449906892
 H          7.5958777008       -6.5538164727        4.1249845246
 C          3.5481197080       -5.1932459431       -5.4091018492
 C          2.8380997086       -4.2780261830       -4.6184301823
 N          2.2422651129       -3.5290595422       -3.9718017261
 H          3.7185666625       -6.1294556467       -4.8739425188
 H          4.5226613115       -4.7945234621       -5.6974987684
 H          3.0033137573       -5.4307994792       -6.3249988165
 C         -9.1976747402        2.0478127829       -0.7966343574
 C         -8.2588470719        1.0505733316       -1.0815066112
 N         -7.4782542609        0.2277992445       -1.3009849416
 H         -9.0588052181        2.4085539808        0.2223354633
 H        -10.2196194726        1.6747332373       -0.8825032998
 H         -9.0950779496        2.9006194834       -1.4698119307
