  61
        -11.72507136
 H         -3.5159057775       -0.8852545289        2.3192251387
 H         -2.8336771587        0.2876812667       -3.6337587411
 C         -1.4686557007       -1.2801790512       -1.5102348826
 H         -3.6967189455        1.6805291162       -4.2806519028
 H         -4.9374488555        0.1552126746        2.3958201202
 H         -4.3183916828        0.8289621603       -2.8635444013
 N          0.3191843953        0.2016735504       -1.1208225880
 H         -1.5111309804       -1.2028704043       -2.5954137659
 H         -2.4804061989       -1.4219799544       -1.1279655828
 H         -0.8755536187       -2.1567494241       -1.2547938174
 N         -1.2972658150        3.4859140273        0.9903462836
 C         -0.2933244429        3.1955097725        0.3953075829
 C         -0.8367792786       -0.0921249571       -0.9670949523
 C          0.8935729335        2.8784623563       -0.3250666046
 Na        -2.3408452780        1.7055259121        0.0867350623
 N         -1.5824697256        0.3518604955        1.6902416789
 C         -1.6868655949        1.1846021714        2.5499944200
 C         -1.8064992277        2.1481956309        3.5915555914
 H          1.3444052137        1.9541193144        0.0423293683
 H          1.6359028652        3.6737267413       -0.2400869193
 H          0.6772135804        2.7325349301       -1.3856279454
 N         -4.5144067873        2.2979594740        2.3093961983
 C         -4.3550815685        2.8740583955        1.2946103700
 C         -4.2494616486        3.6394319737        0.0852898381
 H         -4.9165565749        3.2467547155       -0.6976910194
 H         -3.1963566052        3.6550309179       -0.3315273979
 H         -4.5388766100        4.6869523775        0.2637344081
 H         -2.8548132625        2.3331119865        3.8344434788
 H         -1.3639038028        3.1015436066        3.2976827752
 H         -1.3057938193        1.8132593109        4.5011246774
 N         -1.9668035119        2.7361531895       -1.8309820174
 C         -2.6352091708        2.0122349252       -2.5163071931
 C         -3.4087442962        1.1712975717       -3.3597826257
 C         -4.1285848653       -0.0972519902        0.4854161820
 C         -4.4206049588       -0.5889116745        1.7857119327
 H         -5.0629770690       -1.4650846104        1.7226047617
 N         -3.8844889511        0.3104392488       -0.6181724030
 C         -7.2259854531       -3.7769458203        4.8840468955
 C         -6.3759262121       -3.1001245093        3.9979886079
 N         -5.6763604001       -2.5438865650        3.2654629548
 H         -7.3299707540       -4.8276243378        4.6070069685
 H         -8.2241950085       -3.3351860393        4.8886836093
 H         -6.8426194165       -3.7397932479        5.9053942091
 C         26.3488541283        1.6963805228       -0.0223967481
 C         24.9766551914        1.4247532244       -0.1072255374
 N         23.8433830960        1.2049512975       -0.1754271422
 H         26.6300980290        1.9945867722        0.9889244729
 H         26.6334239027        2.5047244288       -0.6979464835
 H         26.9416238640        0.8190711366       -0.2865053636
 C         -0.3010835934       -5.9108021870        0.0096966186
 C         -0.9050136806       -4.9182632877       -0.7751747252
 N         -1.4014130774       -4.0993046634       -1.4220714636
 H          0.3616131063       -5.4735080535        0.7588513455
 H          0.2946441732       -6.5906419586       -0.6023788087
 H         -1.0483831527       -6.5075738882        0.5360912989
 C         -2.6327146212       -4.2107214493       -4.4240418931
 C         -2.7221647784       -2.8214394984       -4.2634513692
 N         -2.7900300503       -1.6777241034       -4.1154816461
 H         -3.5990475567       -4.6411612560       -4.6927057114
 H         -2.2996646088       -4.6873651642       -3.4998311047
 H         -1.9213950353       -4.4726521610       -5.2093978177
