  60
        -11.43042242
 C          3.0730610828        2.7022257995        1.8941286604
 C          1.7925651186        3.2583971458        1.8146674193
 N          0.7276530399        3.7005838341        1.7435453635
 H          3.1571822427        2.0118377344        2.7353403830
 H          3.8427234935        3.4673717771        2.0050219387
 H          3.2889266099        2.1393372703        0.9871575595
 C         -2.1462872020        0.7182222988       -1.9898264193
 C         -1.2393297855       -0.2497183124       -1.5494721220
 N         -0.4789910374       -1.0361308003       -1.1802674980
 H         -3.0239769407        0.2656176256       -2.4540984092
 H         -1.6855604386        1.3941831490       -2.7126821575
 H         -2.4793607817        1.3207155464       -1.1452902110
 C          1.2787668989       -1.6503599312        0.9815635408
 C          1.6988879442       -1.0714516223        2.1961907134
 N          2.1078647789       -0.0447239231        2.7914998646
 H          0.5468078087       -1.0055066824        0.4885621894
 H          0.8169678124       -2.6268606439        1.1564416220
 H          2.1306684314       -1.7653312801        0.3071253249
 C         -0.8503148509        1.2293002055        2.5912624880
 C         -1.9983950363        0.6198672491        2.0823096685
 N         -2.9372154968        0.1045492061        1.6496933789
 H         -0.5645329598        2.0749867295        1.9677140801
 H         -0.0187264166        0.5252960127        2.6056282686
 H         -0.9991090106        1.5967566536        3.6074691515
 C          2.2992721860        0.8278068826       -1.9866554494
 C          1.2313633262        1.7194436979       -2.1138321207
 N          0.3457910462        2.4552113857       -2.2094757879
 H          2.9054991174        0.7867523806       -2.8925143941
 H          1.9430910088       -0.1817103263       -1.7788935678
 H          2.9465410697        1.1352331537       -1.1663171725
 C         -5.2943795832        0.5695507876       -0.1305733137
 C         -4.9614981463       -0.6252482335       -0.7793884921
 N         -4.6507293105       -1.5976950139       -1.3213092918
 H         -6.3571691170        0.7981418656       -0.2189991920
 H         -4.7331180273        1.3993537224       -0.5611648347
 H         -5.0430339416        0.5235501805        0.9305766719
 C         -2.5684388619       -2.7555955377        0.5345217960
 C         -1.4018089019       -3.5183903857        0.4448343492
 N         -0.4135983071       -4.1125824103        0.3713831800
 H         -3.0007650710       -2.5931281481       -0.4528744822
 H         -2.3422507735       -1.7778040224        0.9601875438
 H         -3.3250603002       -3.2304615096        1.1602556962
 C          0.8290407021       -3.6091900750       -2.2583068600
 C          1.9481041213       -2.8588801146       -1.8737813367
 N          2.8510215182       -2.2255405851       -1.5294754560
 H          0.9303614751       -3.9979545185       -3.2724009771
 H         -0.0737458707       -2.9960829216       -2.2176608092
 H          0.6742941721       -4.4532332287       -1.5829017802
 C         -1.3725589682        4.3119197245       -0.3872967536
 C         -2.6140041701        3.6969557845       -0.5807012274
 N         -3.6228728284        3.1558321030       -0.7381016950
 H         -1.4692430576        5.3907076793       -0.2587292482
 H         -0.7018333088        4.1298734048       -1.2290198814
 H         -0.8943203474        3.9094521255        0.5048723178
 C          5.0038750315       -1.5148304769        0.6118013302
 C          4.8160224575       -0.1644537669        0.2887993152
 N          4.6521063783        0.9473252707        0.0201255546
 H          4.6404392693       -2.1603618582       -0.1903995245
 H          4.4649151553       -1.7782120770        1.5238098325
 H          6.0591923873       -1.7416183790        0.7704471334
