256
 energy: -393.800894939009 gnorm: 0.000191473411 xtb: 6.6.0 (83090be673e2468c27fcd74d519548d8d51bd8df)
N           -7.22258189841889        7.90300622767962       -0.57722162721372
C           -7.41138147133048        8.71584578994720       -1.77025751231941
C           -7.81757470254900        7.93206693233694       -3.02746666160874
C           -8.37983774031025        7.05989557432358       -0.33102663406770
C           -8.37526313064624        6.23515931013209        0.96633547641124
C           -6.86269879749820        8.70126708037309        0.57840354303239
C           -5.63189928416696        9.60643165046275        0.40616075582552
N           -7.03081270791875        6.80423522024593       -3.41220119905112
N           -7.20726648037488        5.42785799698059        1.10289898113128
N           -4.46094423760446        8.86171571102133        0.07036089383269
H           -6.46008901863880        9.20641918888282       -1.98054194083710
H           -8.18073841494020        9.49687381476386       -1.60692070750022
H           -8.85027341061372        7.57458765974504       -2.95499832043167
H           -7.79824455740737        8.62722139372425       -3.87636134421385
H           -8.43763070953048        6.34982009859163       -1.15921875293704
H           -9.31273249363877        7.65932920461603       -0.31441894903784
H           -8.41612241383309        6.89899731225145        1.83446583187381
H           -9.30008997268326        5.62756898558086        0.95164554827284
H           -6.63264096404496        8.00268159075246        1.38408606717656
H           -7.69917717586514        9.35787097705471        0.89373095230822
H           -5.80119300067944       10.33667918603883       -0.38906026118233
H           -5.51052645517535       10.15719418520909        1.35834828686633
C           -5.92649491696800        6.52371404782742       -2.86982780492030
C            3.32926700717655        1.39810062367491       -9.20676934977909
C           -4.86724358819668       -5.51628888028556       -3.19649180984199
C           -1.29328163359482        0.92856876820698       -5.94811176783644
C           -1.91405346474626        2.07418766318430       -5.45487063943218
C           -3.04630141530675        1.98006402108805       -4.65379598824618
C           -3.54467360204589        0.72556217053179       -4.32095926719362
C           -2.92670173421225       -0.42973987036195       -4.78706721817875
C           -1.81156669059984       -0.32057588531843       -5.60936491412009
C           -0.11152642141843        1.02798687110788       -6.81259948096766
C            0.11462579055639        0.11587897524823       -7.84393770572286
C            1.24956372180980        0.23856697285948       -8.61845675364619
C            2.14342675502240        1.28591122249137       -8.36680758956922
N            1.92528229861867        2.16695551777904       -7.39134085489170
C            0.85005139688018        2.03292486523438       -6.64788666228418
C           -3.73330674252022        3.18536381903818       -4.16930333885903
C           -3.06758751213244        4.21144052316937       -3.50125845169529
C           -3.78506651592968        5.30359731901263       -3.05259122451485
C           -5.15757435297887        5.36144874202901       -3.31551959552567
N           -5.79512760277696        4.38615825748406       -3.96156657802729
C           -5.10879894751297        3.33805351182260       -4.35781269753384
C           -3.43643395744550       -1.74343630153778       -4.36997979348383
C           -3.69480619190748       -2.77930151067856       -5.27040264501210
C           -3.67684434221586       -2.00582158501364       -3.02193338694307
C           -4.11895794230551       -3.25599493502559       -2.64583593223307
C           -4.35007822505131       -4.22145051763540       -3.63123775361628
N           -4.14751102138806       -3.96711105327261       -4.92257720285964
H           -0.59944804956043       -0.66900925151521       -8.04716634863320
H            1.44379970999862       -0.45952127408186       -9.41911280160966
H            0.74674543704515        2.76228837234785       -5.85470591605248
H           -2.00548825519061        4.13148119511049       -3.31706577644694
H           -3.31248368623683        6.10204443275182       -2.50090634492475
H           -5.67693164963190        2.57383005586278       -4.87517374507964
H           -3.54065184447551       -2.63333871183746       -6.33311550944644
H           -3.49288393109191       -1.23222432515173       -2.28880238411201
H           -4.28473255426518       -3.50534640365628       -1.61054233975808
H           -5.46247093456199        7.09816572102582       -2.06431777148574
N            6.95847724908277        2.99484772118987       -8.28461856631602
C            6.99924763026390        4.35620183980877       -8.79942181970958
C            7.38893770386149        5.42649398372076       -7.76873842494026
C            8.20054376132861        2.65497580007014       -7.61191305218983
C            8.35301451456916        1.20617484067375       -7.12071959614286
C            6.60280701169222        2.03397360769116       -9.31032065848073
C            5.28092004319186        2.30442190164239      -10.04756368741989
N            6.67842412968034        5.47378012083145       -6.53127857134913
N            7.28062050522788        0.79344565165870       -6.27515902565502
N            4.16780958355415        2.33661584180369       -9.15410383967658
H            5.99807816639643        4.59553910596799       -9.15981530518015
H            7.70750234180664        4.44322327514348       -9.64757482659041
H            8.45082732334177        5.35840016139518       -7.50925413560530
H            7.25653271546932        6.40874610380031       -8.23977723147646
H            8.27113455010191        3.29802558213820       -6.73160065538007
H            9.07404521489689        2.85435091074470       -8.26552959906963
H            8.38037403053602        0.52033230117202       -7.97195374772916
H            9.33048951721025        1.15582705904040       -6.60440722848544
H            6.49641325640936        1.06833914609648       -8.81433846171299
H            7.39164078923405        1.95950923073583      -10.08650557607222
H            5.17601656077938        1.50676704195797      -10.80751151955283
H            5.31996515486531        3.26511142039496      -10.56675285456381
N           -3.92503102873745       -8.77008203803545       -3.34435123863334
C           -5.28843577610904       -8.73725842243235       -3.82476763721068
C           -6.06396433764725       -7.48969077732707       -3.37435104519489
C           -3.04152629722272       -9.55620851829317       -4.18251826207205
C           -2.25845948673078       -8.64621278304521       -5.14869877120536
C           -3.76183200244957       -9.01559830951186       -1.92782204423707
C           -2.42567876325763       -8.46418870601220       -1.40120082412878
N           -5.51459135373963       -6.29888695820584       -3.94316732225920
N           -1.38757819333581       -7.81591469769821       -4.38158156033848
N           -2.53593544226220       -7.12257716185334       -0.93248963592838
H           -5.86132466989711       -9.62706269717158       -3.50313571182984
H           -5.25548505545892       -8.72277691689419       -4.91542502968710
H           -7.08668287985180       -7.58484439477245       -3.75275248843810
H           -6.09425506352153       -7.44354890084077       -2.27382019065814
H           -3.59911755820704      -10.29622707456204       -4.77234498356721
H           -2.32042580336042      -10.09348568388710       -3.56370789710211
H           -1.64308624046846       -9.27310324005517       -5.80001905801898
H           -2.97016231682107       -8.06206370426975       -5.75301458123566
H           -3.81364809595950      -10.09577737573299       -1.69674727392582
H           -4.57259126119155       -8.52372231642945       -1.38972565152755
H           -1.71320850555986       -8.41863344603033       -2.23354251393614
H           -2.01243195044500       -9.13660669436714       -0.62888733533882
N            5.15163205298207        1.56332922835493        8.78966083598166
C            5.10942077779142        0.11850095883823        8.73118462007828
C            3.76798526998568       -0.39372708362026        8.17985521946847
C            6.46943091303162        2.15664642181587        8.74460561279015
C            7.13717131285012        2.05343801697140        7.36479769652754
C            4.30053752674535        2.13548739576775        9.81389040080082
C            3.37043067635337        3.20607367723673        9.21107025381444
N            3.77169609247572       -0.51838656592332        6.75989019882684
N            6.43336209897575        2.82043149269084        6.38556160582509
N            2.46506467405609        2.56410379529473        8.31390873028833
H            5.27371985548451       -0.33094196606694        9.72811720770591
H            5.90753858045520       -0.23123349969967        8.07581112581235
H            3.48989310002617       -1.34104825675918        8.67472876415938
H            2.99262290420197        0.34956578921822        8.39969011508586
H            7.15219082218659        1.70275840132728        9.48702219887416
H            6.36359822833637        3.21789162401162        8.97544373441286
H            8.13896432031320        2.48614613829728        7.45222392176563
H            7.23063097004295        0.99580726692918        7.06960663332733
H            4.89149850689533        2.59601852235392       10.61723905157542
H            3.67738065167416        1.35723452865069       10.25848997158609
H            3.98020428908062        3.97575980918329        8.71253596469683
H            2.78592818961966        3.65766272570467       10.01743946081368
C           -7.30497177327299        4.17574891545564        1.01168601178279
C            2.61010681535229        2.73545128782855        7.07259750260202
C           -1.87833439096331       -6.77438971733184        0.08385140231577
C           -0.90649869155299        0.38302317435819        3.31275833680469
C           -1.95818263774901        1.18907762238473        2.89216841402505
C           -2.94880711391517        0.69428003377014        2.04796524634086
C           -2.84759672475602       -0.62103312854999        1.60360763835973
C           -1.79814980241163       -1.44129414839620        2.01177080465665
C           -0.83616867156070       -0.93511307902508        2.88250890722391
C            0.08747331607894        0.95757878205783        4.23111456713845
C            0.77457802496750        2.12192410727998        3.89708232421651
C            1.63071582910775        2.68077020387950        4.82124278403425
C            1.75808304337195        2.08714474537210        6.08017530409309
N            1.10627985711045        0.97096516117123        6.39921944742832
C            0.32228324122501        0.42165061532685        5.49766020198562
C           -4.08873642614486        1.54361789801944        1.68242099017062
C           -5.37145507828298        1.02491719769955        1.50165688584672
C           -6.42026813637481        1.88339212894261        1.23587666527196
C           -6.18074188032464        3.26141205149248        1.18537260537887
N           -4.95197716346957        3.75663693592730        1.32326286817223
C           -3.95536471474735        2.93175253953472        1.54196374463287
C           -1.73973390158321       -2.83027956848258        1.54460835153960
C           -2.12846432174773       -3.17686018155325        0.24638241853962
C           -1.32672091015180       -3.87682101805385        2.37001826212812
C           -1.34870394040607       -5.16892768439221        1.88405449538938
C           -1.82350612585199       -5.40721672238816        0.58839766169699
N           -2.19293711933287       -4.40712251339527       -0.20997393091316
H            0.63893024125755        2.56921987975100        2.92192712293260
H            2.17918960258228        3.58121151312332        4.59598879239948
H           -0.18321176363166       -0.48639093759467        5.80628269388059
H           -5.55160690313206       -0.03623916946886        1.59840536144230
H           -7.42035102790156        1.50052928736659        1.09680994796642
H           -2.98152143061424        3.39847141860939        1.61221408554955
H           -2.39064312295410       -2.40666492189519       -0.46660751581098
H           -1.01013116475733       -3.67748287088984        3.38393774957257
H           -1.03061641656311       -5.99530814066915        2.50246030254328
H           -8.27405483359719        3.67476042451636        0.83340780117667
H            3.36334870286439        3.41925010865161        6.65651364945551
H           -1.27420562244180       -7.49365668736272        0.66546732725059
C           -3.54191487179207        8.76936425753941        0.92669303664438
C            5.77507219485099        2.21227652140145        5.49950703291552
C            5.64522934259860        4.78455017514712       -6.30778252071985
C            3.21389374519683        4.73083726572069        1.10979699376755
C            2.02741674256648        5.43131908498356        1.29303879417365
C            1.35553568141680        5.99384254544751        0.20878377465195
C            1.89214099004599        5.84957050851529       -1.06879734238680
C            3.09284555989836        5.17617808427093       -1.26257145467068
C            3.74593864725101        4.61715939535961       -0.17002327273379
C            3.89094141540942        4.07646251189044        2.23767384899267
C            4.29231993275574        2.74479624171889        2.13805823779036
C            4.88861736928405        2.13646279412622        3.22165012347659
C            5.10576112789979        2.88023447156366        4.38612736293596
N            4.75254626495711        4.16083547282541        4.47528308527978
C            4.15741093852144        4.72683996640259        3.44455447777958
C            0.10289430592372        6.72902339221227        0.41876268401573
C           -0.10333559066333        7.50103858021741        1.56247171570584
C           -1.30497892392564        8.15847428550794        1.72650007754921
C           -2.28578381628558        8.05552246097763        0.73315317744037
N           -2.08726770983849        7.33192879288773       -0.36793504818160
C           -0.94665967809670        6.69422792076355       -0.50762620909493
C            3.69088239260698        5.06073429962767       -2.59979721204685
C            5.02288585140675        5.42471883229019       -2.81036097328047
C            2.98430007132236        4.57848895912797       -3.69994721715761
C            3.62404937264077        4.46867734186993       -4.91965600311156
C            4.95720568188364        4.87972150798736       -5.01998178129897
N            5.63180984133160        5.35177782200012       -3.97229854422761
H            4.11054950753339        2.20166164234879        1.22053099134903
H            5.18475603997944        1.10050034801141        3.19068379864548
H            3.88583467415278        5.76731364872308        3.57859893062326
H            0.67553457597097        7.59771969048321        2.30493398665682
H           -1.48545707080919        8.75777127624596        2.60652228195550
H           -0.85942332769069        6.10019132267011       -1.40839199100742
H            5.61867768257578        5.81179089844340       -1.99198457153412
H            1.95490960897722        4.27000302902659       -3.58352109293942
H            3.12186613427785        4.06534563773811       -5.78585612476831
H           -3.62009015116683        9.26502553703297        1.91191949301562
H            5.19060746752798        4.09108449763634       -7.01976596472976
C            3.16757243857361       -1.48877973994401        6.23100921388256
C           -1.64880275804470       -6.58630478721807       -4.27789590198211
C            7.49498273551464        0.61544244690839       -5.04700271591511
C            1.70184872900128       -3.06195323353792       -1.38343467609161
C            1.73011958943188       -2.94806801414548        0.00007635996723
C            2.66415318776933       -2.11935372464006        0.61723432652305
C            3.58826505875377       -1.43134357329772       -0.16606545412180
C            3.59225502869494       -1.55622038830528       -1.55246548519917
C            2.62870951314633       -2.36452061262927       -2.14993795240899
C            0.74355341659958       -3.93393470450941       -2.07766258907068
C           -0.06480619308695       -3.43617029042402       -3.09663672754072
C           -0.87514173169264       -4.30723074269142       -3.79233327900319
C           -0.83943073158569       -5.66942684324433       -3.48125249826890
N           -0.07286142632635       -6.14611206609718       -2.50254700137417
C            0.66933306167312       -5.30315127335324       -1.81873429371583
C            2.71590025861634       -1.99334025624092        2.07774143941598
C            2.48987455777871       -3.07927585800339        2.92452416555232
C            2.61513728668640       -2.90912520480234        4.28883865445162
C            3.00461773788311       -1.66171448408127        4.79213895280719
N            3.19250711848047       -0.61687375789874        3.98783160137478
C            3.03122230437797       -0.77770352858370        2.69388981723536
C            4.61137067097049       -0.90283364373342       -2.38254915496222
C            4.33056603408071       -0.47149892363688       -3.68625284541311
C            5.92335837015633       -0.72467983260103       -1.94218091220703
C            6.86029881804683       -0.18296257735958       -2.80039254547242
C            6.48179233315898        0.14735895764545       -4.10677489098709
N            5.22226775446464        0.01245917937512       -4.51807599951970
H           -0.05602328853829       -2.37990719148990       -3.32788509484290
H           -1.51241884583920       -3.95644650710528       -4.58814711259860
H            2.23747373608794       -4.04639965226303        2.51324512414649
H            2.44254170944539       -3.73364395141921        4.96485163046594
H            3.14621034390944        0.11977495207581        2.10085075064740
H            3.32205014493961       -0.52401588961950       -4.07517002245086
H            6.21467153934190       -1.03561446082450       -0.94897615544005
H            7.88145341542794       -0.04187172093078       -2.47867929395764
H            2.69622553837240       -2.28454029254509        6.83552853083100
H            8.49489825474548        0.76312276559464       -4.59934598106880
H           -4.70113425519764       -5.72081680915830       -2.12845333268555
H           -1.54299547575338        3.04980520279869       -5.73083438322522
H           -4.42127592206516        0.65071131766593       -3.69386223302757
H           -1.32027704348278       -1.21968351394786       -5.95125073968757
H           -2.02568495368879        2.19854311805046        3.26870650896900
H           -3.60108858550599       -1.02107705460114        0.94240746221427
H           -0.00863937127209       -1.55191438864181        3.20114729215078
H            1.60390778073246        5.49984166041813        2.28431250568692
H            1.39837990928200        6.30266682580552       -1.91537614116857
H            4.67669745180676        4.08970779406018       -0.32032925845394
H            0.99950735613252       -3.48211910443946        0.58981827937189
H            4.32262099615593       -0.80429913164918        0.31617062675066
H            2.62580203022320       -2.49765923479232       -3.22124318790254
H            3.43119291403687        0.57469238709108       -9.93756843516365
H           -2.48407423833051       -6.11508689103398       -4.81516196779992
H            1.27508641191473       -5.74142028125005       -1.03373150469603
H            5.71257177040813        1.11470710600381        5.45778877549559
