264
 energy: -394.855467929426 gnorm: 0.000064615753 xtb: 6.6.0 (83090be673e2468c27fcd74d519548d8d51bd8df)
N            5.97556047678586        7.46547941741254        7.78942132821218
C            6.28901470709985        6.55336362564759        8.92111742976984
C            5.26775518691286        5.41296402380827        8.96479824629972
C            7.19321427925768        8.05191907463920        7.16921238373766
C            7.75781783596296        7.08429578520755        6.12515322570306
C            4.95707069318351        8.49031763018110        8.14043221319884
C            4.09132731478871        8.80117605174899        6.91608612975221
N            5.26309236677551        4.76171407023559        7.68448350134123
N            6.72125094420344        6.79363012665149        5.17437840666174
N            3.51006283566944        7.57348160206013        6.44926930968365
Li           4.58324640893214        5.61584792594622        5.47914947936744
H            6.29737141577584        7.11269907623686        9.85822962688551
H            7.28223495597274        6.12861094623725        8.76550921632060
H            5.52373139429502        4.73507162463116        9.79080270780391
H            4.26239477030396        5.80636790426057        9.14053477436320
H            7.93192087055869        8.27738920339331        7.94033691053274
H            6.92081989512231        8.98424128058069        6.67154306969686
H            8.64917163159241        7.53350173793302        5.66575360199063
H            8.05040329839946        6.14130126837293        6.59593153261821
H            5.44867477200899        9.38977841237284        8.51524822956290
H            4.31695608695921        8.09406723214379        8.93066138892188
H            3.34023112474530        9.55424210228445        7.19220838706567
H            4.70516240430832        9.20589842182904        6.10638347275798
C            5.44561622037921        3.51425709938112        7.61722932091467
C            3.24141589463791       -6.37304239878521        0.76046551271708
C            7.92709708231419        3.68671268201815       -4.34523549429763
C            5.17172458272909       -1.07117479248644        1.22317359533165
C            5.14264621789366       -0.45076804124564        2.46919618100311
C            5.58869099642144        0.85942716103250        2.61914419611057
C            6.06382647371250        1.55070657261211        1.50796982476999
C            6.09745295777426        0.94305031222227        0.25597478883690
C            5.64810890562658       -0.36761054072168        0.12042679314476
C            4.71133373508959       -2.45920317598185        1.07384667059408
C            5.37458763443223       -3.36155300553495        0.24205743384082
C            4.88941335012829       -4.65106767272155        0.13058874929756
C            3.75533128584152       -5.01734132767967        0.86060750804199
N            3.12204174521115       -4.15761648583417        1.66014906278132
C            3.58245743548085       -2.92820074192128        1.75819878923199
C            5.56725343765985        1.50497941924485        3.93964285969452
C            5.89844616358608        0.80443807539065        5.09953210815658
C            5.85227153738571        1.46132434538256        6.31487401011316
C            5.48503334819981        2.80944212278241        6.34695518835864
N            5.17116305142448        3.48250345981309        5.23882261216379
C            5.20870268753919        2.85161311581909        4.08403473147112
C            6.61058568592871        1.67529689291952       -0.91063802352625
C            6.00260342754273        1.55762745153762       -2.16727144761635
C            7.71761923742727        2.51835228329248       -0.81300736047195
C            8.14987434123859        3.18953124330366       -1.94138070314638
C            7.47367504574203        2.99681722381668       -3.14919582167229
N            6.41683443615247        2.18859811853944       -3.24593010075727
H            6.26606789641027       -3.06929109387088       -0.29163417865314
H            5.38675244948771       -5.37006076432785       -0.50189383362056
H            3.01610798030935       -2.26957261607991        2.39964487099201
H            6.20807411493142       -0.22844947543687        5.05219809323986
H            6.10884488458119        0.94425702820197        7.22651285929674
H            4.92157556560946        3.43863944046160        3.22445863337592
H            5.12820093182897        0.93766244657548       -2.29827919207173
H            8.24519445604666        2.63204653599987        0.12161076435823
H            9.00677561400594        3.84367286446109       -1.89464952516665
H            5.59954162106281        2.89957038964818        8.51062809817778
N            1.17181929699744       -8.02115406975416        3.75174007710234
C            1.77640630050359       -8.03211218857563        5.11024620476709
C            2.84728079151135       -6.94173215283219        5.20921237334152
C           -0.27094432455477       -8.38106352425388        3.76018429162895
C           -1.11203320767302       -7.13689988718537        4.05976255952843
C            1.95635689615259       -8.81068165174284        2.76574599463386
C            1.86532953926367       -8.15245146161222        1.38601776425540
N            2.24428033409324       -5.68384628101958        4.86704375449094
N           -0.78276931510195       -6.12678436707659        3.09315865471902
N            2.31194415894214       -6.79250698419139        1.50476846509292
Li           1.32383032649715       -4.91687806161068        2.73244028558554
H            2.19507007700554       -9.01729671256783        5.32295781875022
H            0.99602633448154       -7.82489919575740        5.84458283991738
H            3.27510544617530       -6.95212813515205        6.22125660359023
H            3.65160478451792       -7.12978647215794        4.49216894922247
H           -0.45398173053046       -9.16817381562127        4.49375434468415
H           -0.54502607773867       -8.76014931165945        2.77403430968810
H           -2.17559752132440       -7.41266675236043        4.04809531111152
H           -0.86947552204440       -6.74065342315681        5.05001890122862
H            1.59153648935975       -9.83891198022555        2.73812584935393
H            3.00191114313295       -8.82561413041050        3.07855047605303
H            0.82806739349616       -8.13152749080705        1.03951535724075
H            2.45844164817499       -8.73872187323459        0.67053317628871
N            7.25240979150435        2.17105739225426       -7.97696360702577
C            8.39078164320399        3.07679699279657       -7.66853386012205
C            7.95507250188663        4.12310960246058       -6.63885336372706
C            7.68645468317751        0.77592707689205       -8.25306174808563
C            7.83918873706338        0.01119815876570       -6.93505906300946
C            6.35292994074987        2.71400828464804       -9.02924272124653
C            4.90848775534880        2.29182261146550       -8.74484479577180
N            7.44630365480874        3.43532001940311       -5.48514817464987
N            6.59255165867405        0.08277946812588       -6.22548354505011
N            4.56263339445724        2.72591797674818       -7.42016618230423
Li           5.45312870066147        2.01775910450855       -5.24797260131288
H            8.74956924092831        3.54887042952145       -8.58470460462978
H            9.20515369052815        2.48657375563068       -7.24476087622869
H            8.80884557452081        4.77544722146054       -6.40883805311063
H            7.14631611813985        4.74113403900205       -7.03928048189881
H            8.62082915321720        0.78201990855779       -8.81696105449652
H            6.92336611778365        0.28280444509744       -8.85780151672449
H            8.15043170389568       -1.01956493770716       -7.15429537984213
H            8.60498402472822        0.47739284519643       -6.30838889708093
H            6.67900890944354        2.36832156301602      -10.01171284196453
H            6.40940510835580        3.80388141607658       -9.01249953236057
H            4.81578433861720        1.20216170798307       -8.77092085266101
H            4.25388205458554        2.71375314809459       -9.52001257561941
N           -7.79114335340860        5.13635127416264       -1.35601436322162
C           -7.79670651196319        5.51699801105162       -2.79341062596284
C           -6.39923991343273        5.98387396840792       -3.21091966928717
C           -8.71054464572022        4.00700344732199       -1.05591013735138
C           -8.00490808099176        2.67683373135421       -1.33469817304474
C           -7.99391935838716        6.29915549776652       -0.45171015345027
C           -7.19599188749462        6.09509554329557        0.83938373345570
N           -5.46428810240601        4.93579714276910       -2.91017670491618
N           -6.79047435462322        2.63992883110788       -0.56863011996909
N           -5.81977202351750        5.88044670543419        0.48891050895687
Li          -4.77497676868258        4.02744137744166       -0.74498569451535
H           -8.54196887869958        6.29469732558802       -2.96913569755992
H           -8.06627264588550        4.64231718557514       -3.38798751030626
H           -6.41594385100096        6.25212049660132       -4.27638014276536
H           -6.10315630752220        6.86663860666758       -2.63694196353777
H           -9.62227055989488        4.10235106690587       -1.64819921230104
H           -8.98149488527899        4.04512188150142        0.00063526455148
H           -8.68984433115036        1.85191468756372       -1.09447042751868
H           -7.73262690741492        2.60228574369362       -2.39147898923713
H           -9.05753011725465        6.42707719522091       -0.24343083655191
H           -7.63064802172444        7.19990169443546       -0.94961371600991
H           -7.54606430676647        5.20436916790999        1.36904341683953
H           -7.34274760815756        6.96670130060899        1.49221191859581
C            6.93376678926698        6.97504960723494        3.94322294726810
C           -4.92337008775615        6.60662087695910        1.00166914955678
C            3.53446861611540        3.43700549504091       -7.24376485461138
C            0.51735073668491        5.95546649443109       -0.42136586020365
C            1.54577015900975        6.20089495079073        0.48424214114236
C            2.87488218143638        6.01047430352192        0.11619169785881
C            3.17052257357979        5.56667185132901       -1.16980506030419
C            2.15210927592023        5.31779581476135       -2.08586414988938
C            0.82760168301451        5.51353743924704       -1.70466135112016
C           -0.88295096065268        6.16815991319468       -0.02788678380660
C           -1.25948332582009        7.24653719100172        0.77298000399956
C           -2.58949809853229        7.39025866802300        1.12083660483773
C           -3.52007208547863        6.45755931942855        0.65465067140349
N           -3.16302513018342        5.42693259155562       -0.11332634350472
C           -1.89446820404475        5.28946345142441       -0.43739140332248
C            3.95654376544586        6.28322214764551        1.07336678281244
C            5.15301598561322        6.87758089849781        0.67151905288846
C            6.14056780678067        7.09936616409337        1.61286127228368
C            5.90902933745797        6.73325306215600        2.94161949345765
N            4.76442884060219        6.16831987741344        3.32939851988805
C            3.82934641983052        5.95093622650988        2.42851166738030
C            2.47435937425616        4.86099253138630       -3.44535256340537
C            3.50060326639659        3.93548478052787       -3.67587194093240
C            1.77116448528361        5.32480245379567       -4.55726690606479
C            2.11196607583667        4.85164715275181       -5.81056193747412
C            3.15694044777622        3.93132050462705       -5.93021622249759
N            3.83342574808741        3.48935010909667       -4.86886237075630
H           -0.53168378090796        7.97359431811147        1.09969332085746
H           -2.90853779273635        8.21877478470369        1.73403050738663
H           -1.66047931927886        4.42455051843452       -1.03996208743675
H            5.30299992469314        7.18065552450267       -0.35341510758417
H            7.07333211153056        7.56181378500522        1.32928870127132
H            2.93529368158374        5.46881947747983        2.79475665986814
H            4.06451431875535        3.52412997196342       -2.85192056982692
H            0.98705930467135        6.05862321929098       -4.44905530811879
H            1.58724512609979        5.19791698791497       -6.68755410766620
H            7.89512563786122        7.34002674732593        3.56617771370097
H           -5.15698342035901        7.39844257367146        1.72150321180262
H            2.88199940629228        3.73231958091907       -8.07248978318198
C            2.25718816880435        7.48560922407865        6.32101195596511
C           -6.56757386451989        1.66528868147452        0.20230246421762
C            2.32327814133876       -4.71345463485513        5.67077646919181
C           -1.88835149159314        1.47707365226556        3.38387874938022
C           -1.32882416586241        2.67326793624089        3.82507683437004
C           -0.16587066146915        2.67174550855471        4.59016296959806
C            0.43867043601818        1.46010843822324        4.91309904334670
C           -0.11218106456862        0.25660036741372        4.48181207199146
C           -1.27343775103919        0.27246319885340        3.71420765761278
C           -3.12110356307082        1.48565715751371        2.58321371824067
C           -4.11856444345951        0.52860656286064        2.77059409645792
C           -5.25209121464586        0.57893673112500        1.98118347204647
C           -5.37299055033426        1.59275808152499        1.02677524889646
N           -4.42212285243270        2.51112893159672        0.84774887132032
C           -3.33991714560233        2.45486971455467        1.59535087066002
C            0.41624299584204        3.93798794812257        5.05754381572623
C           -0.38508655547405        4.98584536655788        5.51078772010192
C            0.21779926316694        6.15933674158687        5.92336777486055
C            1.61131373180281        6.25910740679138        5.88464840786109
N            2.37995391994717        5.25598298910809        5.45761493129784
C            1.80206083381096        4.14278737228604        5.05760549533858
C            0.52423268568332       -1.01916665272933        4.83984922639283
C            0.61188244592993       -2.07109538938878        3.91899525607787
C            1.07168413387658       -1.23036676635614        6.10539165368605
C            1.67108844020686       -2.44494728756411        6.38152959780806
C            1.70289192249155       -3.42948790994120        5.39012454095481
N            1.17489421227685       -3.23189035350728        4.18118447257674
H           -4.02181243547887       -0.22888191906238        3.53335239903976
H           -6.04054273849366       -0.14657435923260        2.10883138075910
H           -2.59337968905068        3.20753950856649        1.38979388906582
H           -1.45810488712780        4.87955668401886        5.55974984879633
H           -0.37810818505578        6.98412205135092        6.28244519166899
H            2.47013237267788        3.37434876688865        4.69786321925824
H            0.22414540166213       -1.95728978780503        2.91760527796932
H            1.01255191060825       -0.46831804250275        6.86751316414196
H            2.09833426935925       -2.63611560709863        7.35375384591267
H            1.58929914860150        8.32416629243209        6.54569468810446
H            2.84970512195439       -4.79177543700624        6.62805101807828
C           -4.71667945557119        4.48531446544948       -3.82229971880368
C            6.02741313481114       -0.98067398587812       -5.84683252541662
C           -1.70072820354503       -5.59056031348360        2.41224200362833
C            1.04504019026170       -0.83356081041563       -3.16325822003145
C            0.15325318481214        0.19546908617765       -3.45309215308631
C           -1.06863479776848        0.28111869812478       -2.79154331738951
C           -1.39423933658651       -0.67221446183986       -1.83079163685702
C           -0.51247912200605       -1.70731929538269       -1.53228929699601
C            0.70629572650676       -1.78097048133190       -2.20110607080970
C            2.33102572975978       -0.92269613007803       -3.86967438106553
C            2.85815029441252       -2.14963306898540       -4.27294748304807
C            4.08012467427899       -2.17375989039027       -4.91861638543089
C            4.74683038359433       -0.96930517921247       -5.15964135346729
N            4.24141838750790        0.20583381155555       -4.78144470758640
C            3.08152894383742        0.22434513618071       -4.15893184463152
C           -2.00990375109967        1.36446623541008       -3.10990431939789
C           -2.20780262675964        1.79594238441857       -4.42155580609649
C           -3.09497286505273        2.82882122510978       -4.65989240223336
C           -3.77568999842416        3.40392557752120       -3.58323933522352
N           -3.59313266414567        2.98846173923457       -2.32882206473189
C           -2.74122718399688        2.01011194822602       -2.10447272803356
C           -0.86883024525229       -2.71773824618394       -0.52585964071793
C            0.08356407272652       -3.21591168600290        0.37274273998692
C           -2.16744702522225       -3.21652693208465       -0.42187510621296
C           -2.44764475010685       -4.15705464174931        0.55151452193185
C           -1.42125548896568       -4.59068706571024        1.39519281952347
N           -0.17757633080612       -4.11898446091479        1.29447145271770
H            2.31500272408871       -3.06697242219636       -4.10417924236754
H            4.50851934926987       -3.10889126162663       -5.24469553896861
H           -1.69507027425351        1.31988086904418       -5.24347105254039
H           -3.27023977372771        3.17877896717031       -5.66542971368549
H           -2.61391859253280        1.73218383236407       -1.06873113749777
H            1.09953770425632       -2.85029242362487        0.35485660337494
H           -2.94065972113722       -2.89251068577680       -1.10172358329469
H           -3.44277332407870       -4.56214916886554        0.65088390861413
H           -4.74721521349495        4.87545477082355       -4.84534628797785
H           -2.75406980516279       -5.86238684094797        2.53938653263258
H            8.72206836199508        4.42582607931273       -4.19902962350431
H            4.78552160298854       -0.99622210565068        3.32788713424728
H            6.42279256945587        2.56092044619731        1.62222810298399
H            5.68438427994467       -0.84652050018429       -0.84485973585960
H            1.31256513777067        6.55620753064296        1.47505947898757
H            4.19822909731593        5.42877074536040       -1.46513822400609
H            0.03475911824625        5.33515954405209       -2.41318586126610
H           -1.80921945881045        3.60788366036738        3.58374467173768
H            1.33275071211140        1.45420074308371        5.51571836673545
H           -1.70806226441620       -0.65815284031275        3.38618180161673
H            0.40582794958561        0.92380340282573       -4.20702086287945
H           -2.34469988816765       -0.61617641921355       -1.32491186261663
H            1.38755611046767       -2.58715879490074       -1.98116221689853
H            3.71933553098181       -7.01213213072795        0.01029686717040
H            6.46294751389732       -1.96862211505051       -6.03112435479778
H            2.73277791798307        1.19983586315838       -3.85412421769686
H           -7.27028629846351        0.83126015014131        0.30377119792699
H            5.53776625314149        6.86624151195015        7.05132812017509
H            1.21726754832039       -7.02770432682171        3.42534479822353
H           -6.82679207776566        4.78206578600912       -1.15599414672006
H            6.67717068005164        2.12517442890546       -7.10371363392196
