260
 energy: -393.905009821053 gnorm: 0.000072686714 xtb: 6.6.0 (83090be673e2468c27fcd74d519548d8d51bd8df)
N           -4.91826387841210        7.74879652991834       -4.68477061385181
C           -5.58268360839224        7.46311600396371       -5.95383124862901
C           -6.41777008447907        6.17251357017489       -5.87646737869963
C           -5.88725635725200        8.12285665636908       -3.65783883847367
C           -5.25741041523665        8.11282313211038       -2.25350898598866
C           -3.89764659844370        8.78109872477359       -4.84623672455327
C           -2.70558671617436        8.27239407658159       -5.67650053938302
N           -5.87737330598872        5.28735890669291       -4.89225222087203
N           -4.16346216609367        7.19351935544834       -2.20274503774688
N           -2.57531444424124        6.85466870981990       -5.54533338742764
Ca          -3.82625637018217        5.75644920767022       -3.96314426456754
H           -4.81248273998055        7.33908949788801       -6.71413657522076
H           -6.23098365893766        8.29470374389705       -6.26775869296388
H           -7.47701620735862        6.39741668823840       -5.68488937987443
H           -6.37392165262457        5.67602686176110       -6.85398645285842
H           -6.69866714542966        7.39657089221533       -3.68464416339798
H           -6.32038071359604        9.11531659919836       -3.85217277897448
H           -4.95360644103462        9.12490958044533       -1.94901309840378
H           -6.02186114634520        7.78560342992764       -1.53764959856015
H           -3.54324522586273        9.05822961211012       -3.85410131987795
H           -4.30766457695522        9.68571948072497       -5.31945798137816
H           -2.79710065601005        8.57800938660137       -6.72887361886416
H           -1.79301443861611        8.74357218292267       -5.29043113896573
C           -6.64045752905894        4.51647693473205       -4.24180010283932
C           -5.21033135737591       -6.41597840959607        1.07067001025151
C            0.68875930933564        3.38108778720677        5.44845778484263
C           -4.11112979146687       -0.85910864476416        0.93363137687460
C           -4.69304647069228       -0.08761926564432       -0.06927828452661
C           -4.42179119287409        1.27528028680289       -0.15691500725492
C           -3.55871296503174        1.86473497308768        0.76364990544149
C           -2.97340261543388        1.10217187322081        1.77100365768234
C           -3.25274495973406       -0.25990635223967        1.85158348648749
C           -4.40385850129049       -2.29846622837885        1.02399026622385
C           -4.62295589701014       -2.92050165609555        2.25405444490025
C           -4.88818428493894       -4.27797448363980        2.28003137040491
C           -4.92559710721084       -4.98865011965731        1.07661007424297
N           -4.71813597032203       -4.39393456872216       -0.10475816798401
C           -4.46682560433152       -3.09717746141984       -0.12669289773378
C           -5.04596682258307        2.08998614977827       -1.21154516423995
C           -6.38157891977541        1.91014541319780       -1.57515489369656
C           -6.91723129040946        2.70388281742730       -2.57358672469023
C           -6.10645395860368        3.65910626808308       -3.19364538140537
N           -4.82512661682977        3.83339222113330       -2.84691732188060
C           -4.31730463508623        3.07679591736807       -1.89060496166802
C           -2.06612533864556        1.73190938653949        2.74326597686168
C           -0.89595312242396        1.08481808840805        3.16615741308339
C           -2.32973754323310        2.99632071107533        3.27241965011347
C           -1.43149177806644        3.55053414354378        4.16737095577241
C           -0.28900368110837        2.82749242719584        4.52095705253445
N           -0.04066350336826        1.60924058977882        4.02399424349937
H           -4.61251692767520       -2.35345952106618        3.17233188797748
H           -5.06784191673047       -4.78363109623303        3.21644235583783
H           -4.28331020916271       -2.67232342558845       -1.10633797421506
H           -7.00057387331734        1.18344810745411       -1.07166222498757
H           -7.94913449689402        2.59119008268533       -2.86916650405432
H           -3.27079253963382        3.24618103797485       -1.66715660585283
H           -0.62589032617716        0.11183684332472        2.77371476904085
H           -3.22877267382994        3.53168151358214        3.00807054282946
H           -1.61161328993742        4.52647186377511        4.59158016409684
H           -7.71905631656424        4.46228040941062       -4.42468412147156
N           -6.69203123057611       -7.74101167974343       -2.03166362344132
C           -7.90557804839043       -7.33238092594088       -1.32924019336243
C           -8.40567425549566       -5.96055080139499       -1.81506820993960
C           -6.97162386685503       -8.04137047432823       -3.43336587848907
C           -5.67548162097882       -8.16654799065399       -4.25305412187551
C           -6.05784418709818       -8.87640235701986       -1.36687914682499
C           -5.46625363083715       -8.47461472781028       -0.00407781725392
N           -7.31481412333307       -5.17710445424289       -2.30540581441799
N           -4.63815997523006       -7.37599900973346       -3.66678031931152
N           -5.12360040557528       -7.08645917073211        0.00177547381885
Ca          -5.16382440830680       -5.91167584730375       -1.97191422878413
H           -7.67042129711388       -7.26548302072949       -0.26760718918717
H           -8.71073803290580       -8.07288316521387       -1.44720337751448
H           -9.19845947095464       -6.07240546437784       -2.56889522430213
H           -8.85594704839726       -5.43821822016236       -0.96161852808081
H           -7.56622774984565       -7.22322199672807       -3.83812718161103
H           -7.55776799102939       -8.96621479971841       -3.54087464691877
H           -5.37472530660912       -9.21881895062025       -4.35997504015268
H           -5.87231871335740       -7.79259227704165       -5.26571217161433
H           -5.25302133014116       -9.23287909386408       -2.00844363570325
H           -6.76407238898247       -9.70762030353324       -1.22355386393582
H           -4.55264070458197       -9.05985660699795        0.15900909607141
H           -6.15343634186627       -8.72858001244210        0.81610636774427
N            2.79576209541790        0.90191442148181        7.59057086638775
C            2.55553685992353        2.29764589989380        7.94253999995230
C            2.66155231051411        3.19647242837969        6.70116462254007
C            2.02976846715203       -0.01123314350553        8.43259440075330
C            0.61425355661381       -0.21045082699389        7.86961341046941
C            4.21860971011156        0.57774390754787        7.58989407855608
C            4.52945029925274       -0.50010007899562        6.54022946491427
N            1.72648859166208        2.72021129594264        5.73572641909679
N            0.73889984589755       -0.69151321786359        6.53313433231570
N            4.09091351521974       -0.01526037769488        5.27316990348696
Ca           1.92497877680763        0.57192706006376        5.09638878951897
H            3.25319370791047        2.65412349969728        8.71249907959777
H            1.54466018703321        2.39576546336584        8.34532913155582
H            2.47719904826557        4.23769551592548        7.00221318064254
H            3.66508739203059        3.11682985496527        6.27410901446796
H            1.96380388145884        0.34297221196395        9.47036065854338
H            2.52684375500697       -0.98403631155776        8.44916682658694
H            0.06666381029625       -0.90121256086197        8.52670701954034
H            0.09142524580206        0.74957732707667        7.84053843792004
H            4.56398517439806        0.23793692973538        8.57576733696429
H            4.78909943871070        1.47356237916552        7.33335209942181
H            3.96913369252596       -1.41058418294235        6.77063109032194
H            5.60617432094839       -0.72090210778977        6.56801605581199
N            7.24217537625604       -2.25144879053969       -7.77625695038942
C            8.45204592980268       -2.10265055726099       -6.97413506495676
C            8.25373030111103       -1.03599757578638       -5.88651939696063
C            7.07219287129973       -3.61851741714134       -8.25744887600568
C            6.36915256541561       -4.48265615486828       -7.19969020496229
C            7.18830335389566       -1.28088050733714       -8.86459597837743
C            5.73472265928269       -0.88948208779501       -9.17132319344989
N            7.13345943516562       -1.42222321491383       -5.09319515779859
N            5.12091488784669       -3.86654538713630       -6.89067141420483
N            5.15576796197657       -0.38316866260194       -7.97054602030623
Ca           5.17729716551946       -1.73412331328017       -6.16680867041436
H            9.32382704291310       -1.84003481957006       -7.58872150195431
H            8.67311978725516       -3.05200046682901       -6.48057304011455
H            9.18257500751228       -0.94659939968662       -5.30509097513133
H            8.02721119785386       -0.07308216143086       -6.35291633254677
H            8.03055188529335       -4.08147124772776       -8.52941631898463
H            6.44732787417854       -3.60667836729705       -9.15371782821942
H            6.25967345561971       -5.50350938261222       -7.59301429167472
H            6.97190167864998       -4.51096118838094       -6.28778180645873
H            7.66536553510992       -1.66026943444625       -9.77844668453595
H            7.72536384163296       -0.37777820402037       -8.56507975964799
H            5.17129081172599       -1.77573087614141       -9.47607605474648
H            5.73146773543661       -0.15814095982588       -9.99220394553420
C           -3.17733793130604        7.41981758540044       -1.44372041838281
C            4.87818326362693        0.84298805877179       -7.84549784981728
C            4.91676889731157        0.30051508756058        4.37072412535032
C            2.82761641758742        2.60454258130794       -2.86400995021915
C            1.76147860902048        3.49714606843202       -2.79078221683972
C            1.24731904138783        3.88108491957058       -1.55463574486520
C            1.80525617705561        3.36572297432211       -0.38771972417670
C            2.87060614307762        2.47044007015568       -0.45012688112832
C            3.37610268265025        2.09162636577946       -1.69114145858792
C            3.37143336834140        2.20477560834089       -4.17152608954141
C            3.53146264684546        3.12715755432112       -5.20672183624177
C            4.03012380449683        2.69235270703540       -6.42212888184567
C            4.36489207420772        1.34439792678000       -6.57759538932112
N            4.22476885005968        0.46084825278827       -5.58139718808868
C            3.74312448022402        0.87650416775947       -4.42487279107397
C            0.12197599855645        4.82668059058006       -1.48322598834559
C            0.08490540371046        5.84310519443969       -0.52742795633615
C           -0.99946061562791        6.70193187767514       -0.50468266116309
C           -2.02843013398487        6.52616000098059       -1.43471944921477
N           -1.99501460709979        5.55230812393703       -2.35287747184031
C           -0.95695555693895        4.73555049070188       -2.37414543307238
C            3.45668994209606        1.92629711111619        0.78489726839281
C            2.64703300538918        1.56090555319851        1.87027688949545
C            4.83404310532824        1.74361459645631        0.91996175050863
C            5.32897696762833        1.20952046610586        2.09665775765356
C            4.43807125447888        0.87395862653093        3.11980771755760
N            3.11752098836755        1.05704634980007        2.99589723845119
H            3.29091328355972        4.16936340502648       -5.06269581908568
H            4.16419133325062        3.38459301296326       -7.23927582598453
H            3.62232978789587        0.11134868903943       -3.66755952671569
H            0.89762319054407        5.97922292630579        0.16957987365703
H           -1.05099868785933        7.50081715566698        0.21918491279780
H           -0.99314368029020        3.95276161728391       -3.12230752463443
H            1.56926372885235        1.65575582676870        1.81684139622752
H            5.51198330021688        2.03171337872205        0.13120575482828
H            6.38978554782630        1.05966968580139        2.22735422105854
H           -3.13456633674921        8.28689243438385       -0.77578301590740
H            4.99861426009045        1.56384006189558       -8.66114940238474
H            5.99708369308800        0.15771525427174        4.47981850849357
C           -2.13250031779935        6.16405233039579       -6.50796416896706
C            4.02774281430313       -4.39319226485152       -7.24234061814835
C           -7.49836120382038       -4.34353922316445       -3.23875629024496
C           -0.76215998530623       -1.58115833400576       -6.11247961283018
C           -0.79237467453799       -0.19986804276651       -6.28848613148331
C           -1.93939508407009        0.52529398591618       -5.97672459597150
C           -3.06131865613885       -0.13853888344799       -5.48648336642156
C           -3.04170552057872       -1.51945065732559       -5.30862362092494
C           -1.88847065622312       -2.23556298116822       -5.62049058243723
C            0.45095116639041       -2.34520287725952       -6.44418744674336
C            0.37872926952728       -3.58813471178908       -7.07513609653345
C            1.55025547170915       -4.27287969024552       -7.34609049631183
C            2.77272139583470       -3.69904475760033       -6.98634091352064
N            2.84476958924863       -2.50162671120039       -6.39158008950182
C            1.72558561938668       -1.85289189024405       -6.12874355379117
C           -1.96631400952849        1.98463601812642       -6.16537458420146
C           -1.39716954875136        2.58373037170804       -7.29025344951316
C           -1.44514787251040        3.96102139727292       -7.41227821312232
C           -2.05754627056350        4.71383403606628       -6.40592110863238
N           -2.60611365584660        4.14127677992614       -5.32713599004394
C           -2.56105252922946        2.82585754266453       -5.21437588292460
C           -4.23201856238258       -2.22030756093500       -4.80080328174751
C           -4.11695904325972       -3.26321088871887       -3.87056988481691
C           -5.51618864276329       -1.87389315699166       -5.22448784469417
C           -6.59985411235779       -2.56713416207617       -4.71564035427331
C           -6.38072760956462       -3.58970383923345       -3.78789576081301
N           -5.15022939387090       -3.92380690799683       -3.37973378668967
H           -0.57194818528497       -4.00605754870798       -7.36905768253884
H            1.52272160900658       -5.23539926627623       -7.83365285061870
H            1.84440365913749       -0.90437925796310       -5.61914130768896
H           -0.94799119086624        1.98686027466164       -8.06934310448696
H           -1.01900054711919        4.45012937022225       -8.27482982168464
H           -2.99964195593792        2.41871853377590       -4.31119397861963
H           -3.14819006399969       -3.56167219483301       -3.48829507269047
H           -5.66792877755871       -1.09619736955096       -5.95723792791580
H           -7.60293066923202       -2.32550372882980       -5.03224708634310
H           -1.79783822809990        6.61205333191183       -7.44982375720995
H           -8.48472230544649       -4.15640572969643       -3.67672793229494
C            7.27982837136713       -1.80761597654455       -3.89889139838455
C            0.42605428425396       -1.87830950124417        6.23344946591009
C           -3.43073785451117       -7.74072005930752       -3.75974018406766
C            1.28972835499423       -3.58144349058892        0.89629636014587
C            2.45291348306684       -3.18284285233327        0.24213523980034
C            2.67714301808931       -3.54523720238174       -1.08351815410937
C            1.72908184781592       -4.31372961576519       -1.75491548656112
C            0.56280680829062       -4.71712232800055       -1.11007157137619
C            0.34665582353790       -4.34649642603262        0.21496279801396
C            1.05878446623599       -3.19645556908984        2.29754067628040
C            0.49645563414875       -4.08627142646437        3.21431880600161
C            0.28499558740548       -3.66600763833477        4.51570841259347
C            0.64424492344114       -2.36475857675729        4.87762198168120
N            1.19349556113518       -1.51319654269470        4.00245690758871
C            1.38936218389551       -1.91438842891573        2.76021023004256
C            3.90635252748159       -3.11883428658448       -1.77079087798936
C            5.14151308309456       -3.11316415465552       -1.12091579796190
C            6.26158903810408       -2.68519559522777       -1.81172934257435
C            6.12675969863218       -2.27522296693594       -3.14100641679723
N            4.94433727008584       -2.28872315423276       -3.76912178341473
C            3.87645463937269       -2.69263226666058       -3.10668059802195
C           -0.43423892394334       -5.53167800481365       -1.82271371663128
C           -1.80720663985341       -5.29047162870951       -1.67196459748486
C           -0.05174960979797       -6.56869004355557       -2.67519341723384
C           -1.03146119692252       -7.30108847325950       -3.32135111467551
C           -2.37518203090097       -6.98056394550044       -3.10670485458468
N           -2.74473896850322       -5.98592708176144       -2.29025891960638
H            0.24707099821824       -5.09586173139205        2.92555776458451
H           -0.14604042557391       -4.33496824281987        5.24485815986707
H            5.23382672033780       -3.45674948693960       -0.10201056757139
H            7.22919814954020       -2.67306843789412       -1.33378273689490
H            2.94358449209047       -2.65278449553074       -3.65591503876525
H           -2.16299130031887       -4.48490956886400       -1.04101368011503
H            0.98909704614727       -6.81847058481489       -2.81269629371221
H           -0.76396262162115       -8.11294193728751       -3.98020740571424
H            8.24932860917498       -1.80267959926908       -3.38937820205315
H           -3.12607061252509       -8.63439568304283       -4.31499947825816
H            0.48439517828072        4.37370042349889        5.86363534196817
H           -5.36960317369670       -0.54667133205136       -0.77237947288402
H           -3.35456257648264        2.92181281920895        0.70464480289147
H           -2.81217276307830       -0.85141553964411        2.63805375427268
H            1.34020291128384        3.90516043183027       -3.69564133266937
H            1.41843564601104        3.67242766246250        0.57080635562417
H            4.20800615965698        1.40790798156812       -1.74517557771431
H            0.07288530007939        0.30930422071746       -6.68195885552107
H           -3.95489774219595        0.41956499536076       -5.25691207448339
H           -1.87356614457351       -3.30636682815975       -5.49476379827631
H            3.19078433126063       -2.60111620649728        0.77084227961570
H            1.90589875441094       -4.60961698301648       -2.77657588436080
H           -0.55017816797044       -4.66716231654380        0.72039997200734
H           -5.50524364113499       -6.86491931880273        2.02531973752860
H           -0.01701938310380       -2.57399213665303        6.95392020328357
H            1.80668279330764       -1.17176620120377        2.09086845736830
H            3.97228179442931       -5.36982227502045       -7.73493910716739
