264
 energy: -394.492060009009 gnorm: 0.000168943560 xtb: 6.6.0 (83090be673e2468c27fcd74d519548d8d51bd8df)
N            6.02634963065454        7.95999781987336        8.06963923325723
C            6.80524415184952        7.03364230908989        8.93866036300814
C            6.11917661842410        5.67477992338691        9.08729752481647
C            6.90380437086788        8.96094810460972        7.39951257232899
C            7.56052028718512        8.38569475555075        6.14386980666862
C            4.91051416101893        8.61268191911307        8.81092044073281
C            3.74573751626794        8.96650101250927        7.88504889917020
N            6.08796477495615        5.00343696896169        7.81877202985626
N            6.54722704859692        8.04229108399401        5.18650635181430
N            3.15631971101410        7.76335352433369        7.36939638852591
K            4.49340631233552        5.85468183064994        5.52659455896786
H            6.94353766934684        7.49949158269659        9.91669992465160
H            7.78708967657301        6.87409776730994        8.48922786740410
H            6.65211393349754        5.09952507482260        9.85951855592880
H            5.08204991674317        5.80044409118997        9.41385570443723
H            7.66280592761282        9.29969250937603        8.10775523046518
H            6.29659148331307        9.81952429590016        7.10703599150159
H            8.28071571719665        9.12249105334003        5.75760557234801
H            8.10988718149191        7.46959900703946        6.38241994529441
H            5.29077419705537        9.50838387892034        9.30664276639197
H            4.54504641302763        7.92451505238958        9.57527270181017
H            3.02896925338297        9.58503853273360        8.44608012224732
H            4.09836789396937        9.54868562393212        7.02772117339763
C            6.46028419994121        3.79885929193994        7.74869475472377
C            4.04307486013889       -6.35802950067595        1.40091172267394
C            8.79984282041194        3.41314259177640       -4.23280466066027
C            6.06339018552455       -1.06851937463866        1.56722005254423
C            6.05561473095943       -0.39913036993871        2.78753795140918
C            6.52032062429904        0.90927778153107        2.87635767090539
C            6.99324193410807        1.54916879250350        1.73440398220298
C            7.00647744257315        0.88769379987859        0.51026959479357
C            6.53810519708042       -0.42052803710509        0.43115935396274
C            5.57324524660830       -2.45221198068101        1.48313918557775
C            6.28502121023243       -3.44147995983694        0.80674253662053
C            5.77995166203541       -4.72809172549049        0.77768642265615
C            4.56615025574724       -4.99924837111149        1.41636624974909
N            3.87352667220817       -4.04766232507214        2.04618750265751
C            4.36527704123639       -2.82741032540073        2.08104763027624
C            6.51282833334692        1.61327796272031        4.16759197750953
C            6.99454178043332        1.01444866263106        5.33029487404011
C            6.97538213664031        1.73334166832945        6.51110606718100
C            6.46221136884811        3.03387202128547        6.50979389858053
N            5.97986980176184        3.59953326320463        5.40105245691258
C            6.01382359832255        2.91575627264601        4.27713004146569
C            7.51022714260427        1.56588895410951       -0.69331505229959
C            6.79784197176390        1.52506483932229       -1.89683714208915
C            8.70765177276939        2.27923938067019       -0.68413455507484
C            9.13408779180235        2.88634641631565       -1.85071025417342
C            8.34649048408028        2.78229223187718       -3.00120405993506
N            7.19016584928390        2.11533168250565       -3.00561045217015
H            7.22872235662803       -3.21525928367109        0.33313107649631
H            6.32092833524482       -5.51463051903113        0.27442020412128
H            3.76569014590003       -2.09148175816437        2.60076435677652
H            7.40064786267885        0.01414487419331        5.30726775932366
H            7.35891868650737        1.29722402150203        7.42059794086121
H            5.61198612955610        3.41793136393574        3.40698591124926
H            5.85630486272877        0.99498953367857       -1.95290249306628
H            9.30766748359901        2.33730692341194        0.21180973029676
H           10.06641028029598        3.42925144358866       -1.87326142535957
H            6.82012937604230        3.25146844955871        8.62896634650673
N            1.10022807545003       -7.87046031825698        3.96486640405604
C            1.20057877868009       -7.84125499579798        5.45130904593555
C            2.13007642307128       -6.72704024698242        5.93531809626695
C           -0.20868788820204       -8.41613649423831        3.50694096680884
C           -1.30653218266674       -7.35157796017976        3.53275818573904
C            2.24858196937128       -8.59033922070533        3.34540248842856
C            2.55574612110229       -8.06852606716564        1.94095590322612
N            1.57394027634084       -5.45077980588164        5.58546823832784
N           -0.99091565571225       -6.31266200527542        2.59380070120896
N            2.99706435488115       -6.70454060558014        2.01751337787587
K            1.30973041008479       -4.42104333049711        2.83243381982161
H            1.55359890854550       -8.81330571294966        5.80208591825322
H            0.20689755421598       -7.66371991223884        5.86682490228434
H            2.27990519473050       -6.84407045052557        7.01924961595975
H            3.10736039506665       -6.80173243580732        5.44812877949176
H           -0.48139247786403       -9.26305582534541        4.13997510893742
H           -0.10068255609866       -8.77222270139556        2.48080502201005
H           -2.27033000724391       -7.83898807969567        3.32194715151893
H           -1.37068526578890       -6.88791130874773        4.52220943312063
H            2.02245279593786       -9.65830449419212        3.31513300602926
H            3.13317540758230       -8.44234733515781        3.96753097230737
H            1.65514563397300       -8.08459790553367        1.31896912873040
H            3.30174818911126       -8.73193759973693        1.47793246869396
N            7.34579388407724        2.55464263736580       -8.04205305170772
C            8.71844929530537        2.99620196105570       -7.66524150789212
C            8.69703433034717        3.97760098361154       -6.49229096380572
C            7.34768634834891        1.18736158626285       -8.63484538859639
C            7.36599287469475        0.10416389100722       -7.55504564315776
C            6.66756114960035        3.54455051699952       -8.92546800110823
C            5.14571687267599        3.49277348715458       -8.78175804393079
N            8.17600573272233        3.32115823852903       -5.32675635631270
N            6.15272846737671        0.16623159901483       -6.79025707750780
N            4.76738725854396        3.90332252736599       -7.45918443598944
K            5.36030260067190        2.42077189341117       -5.00827426002854
H            9.19728355175302        3.45031722569135       -8.53524936663376
H            9.29926947279853        2.12091566789007       -7.36866788443495
H            9.71599889251569        4.36576381820057       -6.34373485333692
H            8.03988040437080        4.82517433291368       -6.71096930202889
H            8.21317650778974        1.08647443084551       -9.29310017305749
H            6.44321521610595        1.06164849693241       -9.23268109716734
H            7.51413561593054       -0.87181782489800       -8.04117818485264
H            8.19676278548752        0.26670838431370       -6.86097823035491
H            6.95957589755126        3.35274789692066       -9.96018220380158
H            7.00294402020093        4.54649218073078       -8.65129268194067
H            4.77922641159016        2.47081694429789       -8.92112167770720
H            4.70141614031290        4.12386442939361       -9.56631375791405
N           -8.05698084316245        5.57025354273933       -1.26705237178339
C           -8.24607926499496        5.45669273718926       -2.74074515271019
C           -6.95260922375967        5.74486915835453       -3.50435606372314
C           -9.00573950337499        4.70059225621427       -0.51607669121801
C           -8.52143167254595        3.25141356611159       -0.45002567495775
C           -8.12233294839116        6.98625872817153       -0.80690532539051
C           -7.27987643904616        7.21269579082737        0.44944579399903
N           -5.97854962948911        4.73367687764755       -3.20536625839226
N           -7.29716547964017        3.18269887161780        0.29628289895969
N           -5.89555275668452        6.98323701696306        0.14692098678183
K           -4.71293510033741        4.32618042123467       -0.57012800592768
H           -9.03424274569193        6.14619917707514       -3.05038777340670
H           -8.56420527648141        4.43962121142822       -2.97686798828029
H           -7.18753597643609        5.80563939578936       -4.57777657442602
H           -6.52913146057159        6.70584036274247       -3.19545671771363
H           -9.98732645820760        4.75349090789206       -0.99192362532701
H           -9.09505426567703        5.07882184084885        0.50399397523117
H           -9.32229960140346        2.63683677672275       -0.01179147670809
H           -8.31185193943396        2.86843271696833       -1.45382043124079
H           -9.16515013055684        7.25182912229384       -0.62135748547052
H           -7.73757879347939        7.63119999357356       -1.59895284150498
H           -7.56345628247013        6.50578392931001        1.23568682724227
H           -7.47256250418597        8.23055891982032        0.82068112908051
C            6.68421218948321        8.40422631581231        3.98462579511898
C           -5.03296585360068        7.82994331048798        0.51203090270524
C            3.84580435762944        4.75470847564748       -7.31639809914935
C            0.48176603091827        7.22592021083600       -0.63009348994455
C            1.46859146476141        7.48420962648122        0.31630633260511
C            2.81209447920287        7.30972409494360       -0.00216649806295
C            3.16545444549235        6.86753034311017       -1.27299146321271
C            2.18546022471462        6.60565041283082       -2.22616014943856
C            0.84518655805427        6.78589442768967       -1.89962733591823
C           -0.93698286196700        7.42124666070232       -0.29736739981159
C           -1.38482331594816        8.57260645776401        0.34800723435097
C           -2.73401193767992        8.70645759566807        0.61826304692059
C           -3.60892020242494        7.68092677464760        0.24734268248778
N           -3.17775191697432        6.56901474038988       -0.35216745096203
C           -1.89423167174954        6.45274261622887       -0.61812868086203
C            3.85174886867038        7.60198245856132        0.99613299253152
C            4.96691252074328        8.37567183334514        0.67926080297114
C            5.90231387565034        8.63575943436763        1.66320958894802
C            5.71045421468186        8.10727295491450        2.94347088686895
N            4.65447307342209        7.34710895937959        3.24124523100611
C            3.76066807875718        7.11329019889496        2.30368899477090
C            2.56908434389774        6.14738099382278       -3.56961815183949
C            3.50682111448560        5.12357937136656       -3.74152814245555
C            2.01957842860958        6.70916167344511       -4.72087347375209
C            2.43772211576074        6.24898625750228       -5.95580255144170
C            3.38982754431694        5.22702934145407       -6.01661205482424
N            3.89977586856678        4.67351300635852       -4.91412148582585
H           -0.69466482376020        9.36049343293951        0.61077953170095
H           -3.10727874951395        9.59562058643866        1.10269937087494
H           -1.59480107749216        5.53295914229124       -1.10314440127431
H            5.08758403368829        8.78785957187652       -0.31149608066509
H            6.76511157853732        9.24678794169861        1.44699614989492
H            2.92279138445381        6.49334042203826        2.59435789255357
H            3.94745585899996        4.64052936015559       -2.87917552028144
H            1.29716311477541        7.50888484890662       -4.65335903886106
H            2.03921347747006        6.68000199378949       -6.86128452542497
H            7.55344914420438        8.98430135796245        3.65018600360852
H           -5.31005116572565        8.74570220591485        1.04909056992467
H            3.33213225818129        5.20276234245009       -8.17616198279268
C            1.90198653832323        7.62445591134233        7.40934374642608
C           -7.17272770010628        2.31007179420653        1.20039595156018
C            1.50777485731670       -4.54343993802957        6.46104856109744
C           -2.48337233514546        1.84405197192821        4.34299617411029
C           -1.87919102306415        3.01333406003964        4.79561416745638
C           -0.71114065228435        2.95629907478215        5.54920313525339
C           -0.14504544613949        1.72009485863983        5.84618596952326
C           -0.74316616956849        0.54538480563177        5.40046451577905
C           -1.91191582542274        0.61261179890464        4.64744970124242
C           -3.71811169326500        1.91579716726427        3.54774851307918
C           -4.81929443005476        1.10895711589682        3.82849837149454
C           -5.95716311160636        1.23661018497891        3.05362385731050
C           -5.96831380835646        2.16128919923278        2.00503620854001
N           -4.90679751555996        2.91995550150643        1.72335568069434
C           -3.83070982196262        2.80290299861120        2.47180932675436
C           -0.07914923901754        4.19298150754242        6.03209378817441
C           -0.82198951586789        5.20084065191644        6.64449575858249
C           -0.16980795715699        6.33387279245366        7.09371970136235
C            1.21245509373568        6.44184413572646        6.91335519350188
N            1.92081747778273        5.48706214462093        6.30651895784502
C            1.29630842659494        4.40568178256931        5.89071312344470
C           -0.14342995559453       -0.75802756529908        5.72202011314967
C            0.01722654587790       -1.74207651543055        4.74052803153635
C            0.29550549020583       -1.06289634040722        7.00941845691168
C            0.84293714003547       -2.30876703402608        7.25285044607428
C            0.95221966495414       -3.22301069497346        6.20074734256767
N            0.55024737466145       -2.92446097711318        4.96336187606623
H           -4.79566163070007        0.41171375610641        4.65270463243183
H           -6.82837589403580        0.63484377984302        3.26182755483706
H           -2.99710039193433        3.43840579232907        2.20244457734522
H           -1.88629674000660        5.08988825114239        6.78934685083055
H           -0.72051445387132        7.12106904592193        7.58529951536209
H            1.91320715204262        3.66290208830174        5.40195965749229
H           -0.29485168713865       -1.55015445817639        3.72240532458370
H            0.18813163014331       -0.34822003111406        7.81177811044001
H            1.17443682109516       -2.57394297498221        8.24497279550659
H            1.24728679763198        8.39378599994540        7.83759250814091
H            1.85758646635853       -4.70283003528636        7.48871537822699
C           -5.34144556235264        4.19013516564390       -4.15040374244732
C            5.51458122550426       -0.89757762141110       -6.55505766985815
C           -1.88052602382690       -5.91076385189397        1.79301554029356
C            0.62158950772996       -0.94403626412439       -3.70133077055119
C           -0.29844450199676        0.06825814190044       -3.95894536344695
C           -1.51384669116052        0.10507346150745       -3.28231836623943
C           -1.80539325114894       -0.87741107633938       -2.34023542856673
C           -0.89116380152206       -1.89172985990179       -2.07392507584516
C            0.32190242454269       -1.91964570606661       -2.75562696872694
C            1.89865615830776       -0.98466686126107       -4.42878078595841
C            2.38495489516494       -2.16790264482756       -4.98278732581762
C            3.58053903634042       -2.14118803435376       -5.67609821183647
C            4.27301914742398       -0.93240470054214       -5.79510335012243
N            3.82113480168328        0.19548957270389       -5.24259674396410
C            2.67730161325974        0.16627591706394       -4.59224463416874
C           -2.48743281122806        1.17152736492711       -3.55923209228399
C           -2.80835307773256        1.55105501384872       -4.86153750413084
C           -3.74550265339260        2.54853841020288       -5.05676266422442
C           -4.33672563082771        3.15638381910701       -3.94513474460717
N           -4.01349578014801        2.80870832862863       -2.69757003122719
C           -3.13056762845801        1.84960367056624       -2.51788009410628
C           -1.20171002054426       -2.93060400791352       -1.08096228981993
C           -0.26325174347974       -3.30768891541571       -0.11426284837554
C           -2.43613987434804       -3.57744233805982       -1.05902677668831
C           -2.66177412333438       -4.55675968168779       -0.10966410282123
C           -1.65122352060891       -4.86485272555926        0.80615572957967
N           -0.47603605431259       -4.23192740776773        0.79804471343727
H            1.82550494435732       -3.08743959167926       -4.89650512918084
H            3.96843288863765       -3.04084859992618       -6.12849371034529
H           -2.35333436460339        1.05754849598895       -5.70740587781106
H           -4.02332509894513        2.84709028207202       -6.05589941163757
H           -2.90351813316331        1.60455101591933       -1.48866196673494
H            0.70305415302782       -2.82197242606949       -0.07733000868353
H           -3.19724094123266       -3.33711855675023       -1.78638833558016
H           -3.60392061735914       -5.08227133947745       -0.08215725290771
H           -5.51772869690564        4.46022459167223       -5.19915721831612
H           -2.89018418548911       -6.34016017378351        1.78480063348319
H            9.73738793993547        3.97637187075111       -4.14538098929444
H            5.69776199453571       -0.90166088323961        3.67325496550136
H            7.36327142234350        2.56101047519563        1.80010671661556
H            6.55383826846511       -0.94023271299726       -0.51470221524185
H            1.19106010306706        7.83482916031089        1.29874644168901
H            4.20743014403604        6.74061364949408       -1.52471636741279
H            0.08310202487440        6.59452738694179       -2.63963918873463
H           -2.32571724838642        3.97005494586032        4.57079480864254
H            0.75667799236677        1.67104456069511        6.43742978424316
H           -2.38499207562593       -0.29592493476582        4.30720053375967
H           -0.07352707641719        0.82258027364053       -4.69749489397484
H           -2.75175158402650       -0.86030479926574       -1.82150125551783
H            1.02966243707693       -2.71050092039601       -2.55905120867481
H            4.63383497051828       -7.07299841544184        0.81458878389838
H            5.85475051553598       -1.87191860859313       -6.92759883611638
H            2.35682680664151        1.10566426595845       -4.16109707475820
H           -7.98006826443381        1.60788577644713        1.44344480391875
H            5.59922047019371        7.38702924532669        7.32094402027384
H            1.14676486482298       -6.88886909854636        3.63995242745492
H           -7.10281029329494        5.22869333176973       -1.05725778148054
H            6.79552342310503        2.50176345806773       -7.16718675918511
