260
 energy: -394.188762316043 gnorm: 0.000057028124 xtb: 6.6.0 (83090be673e2468c27fcd74d519548d8d51bd8df)
N           -5.61464926431433        7.89992085679053       -1.63180820549236
C           -6.73499023665642        7.79026859316590       -0.71651276971981
C           -7.44772468981854        6.43630367418420       -0.86977973483065
C           -6.05021271303575        8.01623879677205       -3.01079331586099
C           -4.89893125402809        7.72126013945359       -3.98703418703844
C           -4.70734965476892        8.96774315648589       -1.25581869316435
C           -3.94661511457964        8.62333149473432        0.03558724551658
N           -6.54456189355528        5.45671780301752       -1.37537521035723
N           -3.93134415822611        6.87584180048518       -3.37086718707705
N           -3.85492626860702        7.21018559141271        0.19458739324284
Li          -4.38393330010780        5.87031824906215       -1.46517625679012
H           -6.34409600380592        7.86790690415409        0.29478217664021
H           -7.46449370917391        8.60521972160580       -0.86030958822074
H           -8.34483574744311        6.53241769298616       -1.50273640931286
H           -7.78322930250236        6.10974209424346        0.11988982637273
H           -6.83981560513149        7.28625440346222       -3.16947203304913
H           -6.46518474704701        9.01520475492788       -3.22716160501185
H           -4.44884646589455        8.65603768349162       -4.35902411308244
H           -5.30908529678806        7.19183864847157       -4.85321952277532
H           -3.98993952850859        9.09029262154154       -2.06317220570474
H           -5.23482175565360        9.92757327455999       -1.12373863071543
H           -4.41555168639290        9.10471873219444        0.90917668956175
H           -2.92981459867001        9.02086633266156       -0.04703350998604
C           -6.94144100004217        4.62956951845753       -2.23808171570582
C           -3.77087888202484       -6.93327400583471       -4.54108218618352
C            3.90679744452669        2.22172451702120       -7.20018624306841
C           -2.64551329911263       -1.40125386804934       -4.91320903981379
C           -3.58233705521127       -0.50006915939670       -4.41443727186991
C           -3.32084527015270        0.86647345990030       -4.41496870424893
C           -2.10827563523748        1.32967000837393       -4.91795818350320
C           -1.16417608987169        0.44124291713756       -5.42441600937201
C           -1.44119902307035       -0.92335615997957       -5.42056157820617
C           -2.92057472158256       -2.84422750695102       -4.88302029137881
C           -2.57597207121463       -3.68470149270326       -5.94097557353852
C           -2.85402437482741       -5.03520073864630       -5.84126484070640
C           -3.46377164829622       -5.51945608021287       -4.67960824515217
N           -3.79432762752838       -4.71830956576169       -3.66980130320321
C           -3.53428930436821       -3.43445243593123       -3.76994610428713
C           -4.30809641334724        1.81345821301228       -3.87866800472536
C           -5.67316022235727        1.66882284408577       -4.12480475030820
C           -6.55172939596268        2.59277913527462       -3.59091721388076
C           -6.04668562892872        3.63838910508242       -2.81173308058665
N           -4.74465863464376        3.77679786279440       -2.57457961526493
C           -3.91130118253755        2.90079441898295       -3.08885688597107
C            0.11934729425216        0.93730956316646       -5.93911384185417
C            1.31418081147694        0.24914251538134       -5.68729882180775
C            0.20909988904932        2.11640118362536       -6.67884777013404
C            1.45042166686205        2.54793306486380       -7.10768106555768
C            2.58038464069777        1.78817345051813       -6.79078003076138
N            2.49454532438207        0.65509478790334       -6.09605749146334
H           -2.11948586064935       -3.28546272354086       -6.83452811627371
H           -2.60422563729028       -5.70778384414600       -6.64775246966145
H           -3.80726539203254       -2.83826838412041       -2.91234242507403
H           -6.03788560994210        0.86180331213762       -4.74275132234769
H           -7.61263150166187        2.50956809444643       -3.77207070175675
H           -2.87047084778679        3.05486398795574       -2.84754475946769
H            1.31487908732846       -0.65976536335799       -5.10456852644221
H           -0.67896999817764        2.67782182583657       -6.92816548100308
H            1.54677285413740        3.45626818361418       -7.68290545891856
H           -7.97987409528695        4.60930528416719       -2.59915654859126
N           -6.53639502929096       -7.82379253172889       -2.44458562385341
C           -7.19817170987919       -7.59557872419035       -3.71538891942026
C           -7.73275736966367       -6.15704921164266       -3.81511008303736
C           -7.47454047778103       -7.84101973343043       -1.33797850991182
C           -6.75127672964426       -7.66994827874459        0.00869272516924
C           -5.70549321761438       -9.01279779682128       -2.47122911169380
C           -4.46821338604382       -8.80857241313231       -3.36179357434003
N           -6.97293133798160       -5.28868931252765       -2.97906970586922
N           -5.51936383172405       -6.97775548839990       -0.17517032565275
N           -4.13785949268462       -7.42460985422280       -3.44109272345295
Li          -5.08239544114527       -5.97485500008919       -2.08338389688402
H           -6.46426485953179       -7.75176457797894       -4.50193661691505
H           -8.02657574462670       -8.30514996275968       -3.88034391099855
H           -8.80818996081385       -6.11863041368121       -3.57697701066440
H           -7.61732783062469       -5.81809712737241       -4.84965652533770
H           -8.16150363703568       -7.00979991492311       -1.47466960339478
H           -8.06857424706413       -8.77037011634054       -1.31785613914011
H           -6.60434301210425       -8.64387487213851        0.50333457071344
H           -7.38480769874759       -7.06492685592249        0.66529231496233
H           -5.37668941224287       -9.20851507502107       -1.45383813502813
H           -6.26508604136139       -9.89682733778800       -2.82105491892933
H           -3.62365162360177       -9.33283772193851       -2.90289068820455
H           -4.62356070269678       -9.25079244922305       -4.35926940909756
N            6.73283586820169       -0.38410994837867       -7.93852312859331
C            6.71607663472924        0.96839388293047       -8.44173888656899
C            6.21296155489131        1.94565439610995       -7.36509025509006
C            6.28685092618787       -1.38817716401149       -8.87422965939072
C            4.75161717599169       -1.48851093129207       -8.87765196463347
C            7.90825718460462       -0.73746375324137       -7.17938795037258
C            7.53303294803234       -1.59365743816426       -5.95734454702180
N            4.92542689328974        1.53332029975153       -6.92993514174885
N            4.30283246620675       -1.77186233113833       -7.56031225019626
N            6.59314702540828       -0.88267526985225       -5.16472467106320
Li           4.67576826371976       -0.37238186257380       -5.97920469989597
H            7.70804378126234        1.30117799315004       -8.78544699300490
H            6.03497070776264        1.01954809747159       -9.29295677423926
H            6.21844738621698        2.96558143949695       -7.78330899353074
H            6.88373757825072        1.89948015876085       -6.50648821525885
H            6.63048994600129       -1.18794962121519       -9.90132927127842
H            6.69011651164952       -2.35587420496178       -8.57100359979800
H            4.44950401523209       -2.25674537759861       -9.60823416823281
H            4.33589930648712       -0.52339156608090       -9.16933231193213
H            8.64855804007988       -1.28662312989497       -7.78216980811858
H            8.38372714127483        0.17688529493379       -6.82030092685472
H            7.05083392305457       -2.50893877906724       -6.30220834167849
H            8.45425156971635       -1.84635568733411       -5.40723955855761
N            3.47947194588176       -1.09387934305569        8.26058974388497
C            4.89043399607684       -0.91429595019241        8.01626237274933
C            5.12263193701606       -0.04284103170374        6.76963016102087
C            3.09743168740058       -2.42184391013618        8.67669493572729
C            2.92209706293702       -3.34650523849551        7.45932989061736
C            2.84558353628484       -0.02086132241820        8.98822334676904
C            1.45192869392578        0.28275345480475        8.41127878124717
N            4.46975667903278       -0.64099060852526        5.65905568071215
N            1.95776160593020       -2.78016214259369        6.58373142233425
N            1.57864663637857        0.59216239001710        7.03089951977963
Li           2.33594976773732       -0.87813200959466        5.66484112510360
H            5.40969145243133       -0.45405399845749        8.87151021943292
H            5.34427893570345       -1.89069676738086        7.83776832721990
H            6.20822359410516        0.07327418087073        6.61785350772163
H            4.66962462054490        0.93552209654058        6.93333427296957
H            3.83085377274981       -2.87448189523252        9.36233397142017
H            2.14201538571362       -2.36563098799860        9.20116756436603
H            2.64056839562792       -4.35064594249239        7.81641519238871
H            3.86791211190138       -3.40224801904136        6.91946609462209
H            2.74299564239053       -0.24447418035067       10.06178563630207
H            3.45634392753025        0.87847727849714        8.89229873444526
H            0.83293451318225       -0.61120370331746        8.49493448293757
H            0.99912825552687        1.10113836451511        8.99468905062335
C           -2.70512031159580        7.09225710894462       -3.55943729300943
C            1.36815227611894        1.76118626407115        6.61414684395646
C            6.91584696491150       -0.43997263741182       -4.03137740187583
C            1.93263253523783        2.84832592257606        1.08785584736432
C            1.04220842298864        3.67888674730827        0.41374003824076
C            1.15812717077644        3.87871397295327       -0.95913483083752
C            2.17490074147279        3.23646220843674       -1.65893700812962
C            3.06877945545377        2.39654843261261       -1.00003475750190
C            2.94269942403171        2.20971674735549        0.37331441069644
C            1.79819848636362        2.63372797759559        2.53505399748725
C            1.44282589666045        3.66718963116308        3.40188664224281
C            1.30459067500374        3.39587545586180        4.75032017324620
C            1.52953378463363        2.09407667481480        5.20773384254966
N            1.88165640799757        1.10930714165978        4.38311027819651
C            2.00821714850552        1.36903816822190        3.10191436047148
C            0.20369503929238        4.74553171679939       -1.66392976521124
C            0.60762448012431        5.61427403838556       -2.67739045519142
C           -0.34216381316395        6.39552518558104       -3.30847136268130
C           -1.68073798995045        6.28422201282480       -2.91926098610825
N           -2.06769722872596        5.45647679028030       -1.95189353288488
C           -1.16165932708722        4.72037153242772       -1.34906858557403
C            4.12032067531916        1.69770353540196       -1.75106276515862
C            3.86417302785434        1.16106267784445       -3.02048256522563
C            5.40246092479568        1.51788874906966       -1.23226755574252
C            6.33683184958150        0.82172740318703       -1.97622800024853
C            5.97098017417011        0.32050111476432       -3.22899226864957
N            4.75073149851250        0.50214551094967       -3.73086796100735
H            1.29307043213682        4.66983186801071        3.02994406764106
H            1.03145009388465        4.17818389678373        5.44213896719024
H            2.26587968289529        0.52286895395840        2.48283266624846
H            1.64935387197536        5.69427208196035       -2.95063441608414
H           -0.05596604385306        7.08199124322078       -4.09085626165045
H           -1.53887541684799        4.05603897802496       -0.58648391952419
H            2.88605031460667        1.24836000053210       -3.46921672931648
H            5.66935520817228        1.93048799358270       -0.27069302723538
H            7.33659883749851        0.67044616454750       -1.59837465618626
H           -2.34482202578337        7.89714392366645       -4.21627142516226
H            1.04275233964157        2.57567794984558        7.27676667930793
H            7.90731932244500       -0.61294641768948       -3.58933054562111
C           -4.01024672083478        6.70033162450518        1.33565068912267
C            0.82817518313265       -3.31711584675522        6.44097164848408
C           -7.55800498392268       -4.39570973949445       -2.31105979074138
C           -2.92407073894676       -0.92967373655026        2.94003037812532
C           -2.99437982863944        0.45907490512354        2.86755079196478
C           -3.84257538440917        1.07943776819960        1.95559852979608
C           -4.63281977602778        0.29879142831673        1.11627814106714
C           -4.57670062101837       -1.08994636417805        1.18069940322116
C           -3.71786160804248       -1.69715438260451        2.09280576104531
C           -2.00537673357648       -1.57804047451582        3.88572603615564
C           -2.35909524914201       -2.73400128299922        4.58134910122160
C           -1.43754618882762       -3.31358280222689        5.43334091933659
C           -0.17844777146775       -2.72286880641718        5.57569833266400
N            0.15621240750950       -1.61223133628037        4.92123519486998
C           -0.72019103710440       -1.06559183863815        4.10994028490471
C           -3.89128669450679        2.54510359141528        1.86181358948467
C           -3.87787343417880        3.35815235266307        2.99448911706736
C           -3.91808105518320        4.73067764717764        2.83401707007640
C           -3.96238229355217        5.26241483328871        1.54139395387506
N           -3.97424916611367        4.48751380217786        0.45965181178188
C           -3.94136920009871        3.18345225312181        0.61538805186186
C           -5.40276049657250       -1.91101143892023        0.28467513019566
C           -4.88118903136481       -3.05893394956239       -0.32667825590666
C           -6.72748759889041       -1.58248658485384       -0.00141099353340
C           -7.44998808438061       -2.39523526832746       -0.85485559793109
C           -6.82796558227981       -3.51605501181508       -1.41358730258319
N           -5.56343345756668       -3.82963424695571       -1.14312236555499
H           -3.34398246406353       -3.16264238930779        4.47005485478505
H           -1.68638031283785       -4.20764791667355        5.98469735877068
H           -0.37917020327916       -0.18500582466772        3.58640237810327
H           -3.85926647652469        2.92396087092202        3.98313007793266
H           -3.91579739258286        5.38365431664510        3.69361385740727
H           -3.93397997178998        2.60781957556518       -0.29784014273892
H           -3.85636574089976       -3.35422290802535       -0.16017309578844
H           -7.19092726166668       -0.72012674325652        0.45440723578522
H           -8.47929968910674       -2.16860687521981       -1.08813202968248
H           -4.18523856898698        7.31103652653034        2.23321785614290
H           -8.64360116451312       -4.23185793425807       -2.37173461744785
C            5.13749492732487       -1.15368098170817        4.72316686123773
C            3.79474865336541       -2.88980370908702       -7.28347059505031
C           -4.49459212547212       -7.35263335648550        0.45357671977042
C            2.07733398046240       -3.89296199010994       -1.98400065961137
C            2.81840211849149       -3.37634531974633       -0.92436785850233
C            2.38906988969432       -3.53988698893604        0.38926107415158
C            1.20795749952297       -4.23320645863173        0.63988681398783
C            0.45538847635525       -4.75261326117685       -0.40867898354221
C            0.89477303127658       -4.57706754643788       -1.71781918227093
C            2.52899393066754       -3.70095758271500       -3.36865764973874
C            2.38579918711761       -4.69775408239406       -4.33389979457673
C            2.80447666804737       -4.44646437851169       -5.62707004941363
C            3.36505328399741       -3.20200007332591       -5.92968783302188
N            3.51327494027696       -2.25347236594421       -5.00657016334808
C            3.10970735328879       -2.49321704120733       -3.77988027201915
C            3.16048259546638       -2.96526060707096        1.49956582645862
C            4.55493911590443       -2.97927468421216        1.51549003015332
C            5.22035099784668       -2.39070978137846        2.57481876901129
C            4.47632146675079       -1.80290984333008        3.60222851983739
N            3.14449335631127       -1.79929808355095        3.59369067550157
C            2.51503519879470       -2.35468570447014        2.58367114909607
C           -0.80173864985854       -5.46399046583715       -0.13947179733752
C           -1.93428519344008       -5.25379565019004       -0.93737086699447
C           -0.92557856048620       -6.36291078550162        0.91942163864386
C           -2.13831290038564       -6.99396483881011        1.12394715939487
C           -3.20658623629680       -6.70531744544305        0.26886773519513
N           -3.08976902300692       -5.84783677566199       -0.74196171892190
H            1.96921277781921       -5.65934582101282       -4.07355425215779
H            2.70546240121588       -5.20138563865502       -6.39229177343247
H            5.10902228040148       -3.45682792781444        0.72108153662997
H            6.29917113766123       -2.38860306651095        2.61202017778424
H            1.43773158509689       -2.29211559201526        2.61973591821679
H           -1.90576177581624       -4.55519710937452       -1.75995039934191
H           -0.08150991200732       -6.58134113440992        1.55662410187477
H           -2.26053545801289       -7.69962232987335        1.93157903443310
H            6.23615743663081       -1.12808442028252        4.69723765304618
H           -4.51862601487378       -8.18267988185370        1.17446441562823
H            3.96536391655390        3.17775852201431       -7.73955924160809
H           -4.52002713612474       -0.86705730838096       -4.02842122319026
H           -1.90409124927740        2.38861264209770       -4.91824756673222
H           -0.71485956778653       -1.61468149157137       -5.81731886536781
H            0.25615458503762        4.17806645395349        0.95762022182602
H            2.27505772523761        3.39102956019114       -2.72143331745456
H            3.63533161745001        1.56633580381321        0.89203663612841
H           -2.38657720256962        1.05806473108415        3.52687966517687
H           -5.29638469285467        0.77796130805602        0.41401647557309
H           -3.67330507368625       -2.77341199756654        2.14381316381978
H            3.73573663034832       -2.84633798377061       -1.12563806299456
H            0.87599419057067       -4.36966366326524        1.65683116368045
H            0.31248204880519       -4.98117587803678       -2.53051423828595
H           -3.66094411740060       -7.54275053667910       -5.44969665746423
H            3.63802825790027       -3.67157847021189       -8.04024509693447
H            3.22834573486108       -1.67406390775577       -3.08661746489490
H            0.55143976475159       -4.25494522080939        6.94336549611426
