264
 energy: -394.741405067433 gnorm: 0.000040534788 xtb: 6.6.0 (83090be673e2468c27fcd74d519548d8d51bd8df)
N            6.11022924793012        7.51685789297425        7.77593037591499
C            6.11097824392174        6.64017093359044        8.98873194633138
C            4.96101718866750        5.62515965351452        8.87233209223278
C            7.47285181795649        7.81782145205829        7.23561748916785
C            7.88547856791632        6.69576977401460        6.26763420363987
C            5.21330945116030        8.71018709569283        7.88097585600230
C            4.49006870895803        8.91174238751421        6.53838270898839
N            5.07265583515161        4.94298198459656        7.60151819716231
N            6.83929003269680        6.52494827996748        5.28316326107846
N            3.85061603853156        7.66915511591469        6.16410666109222
Mg           4.75695261235465        5.71804327919026        5.51836960615015
H            6.01840866887787        7.24309088285635        9.89349113739630
H            7.06344774187239        6.10662326856997        9.03649573460270
H            5.01955029750175        4.93771932594232        9.72400890280556
H            3.99395744631147        6.13666353381063        8.90067735401040
H            8.19020747301919        7.92242923927250        8.05125140456212
H            7.43580831879015        8.76756909824523        6.69644638505049
H            8.84664487662730        6.96583841346861        5.81544589188064
H            8.00454369987211        5.74977455699781        6.80500892210382
H            5.78864893679334        9.59504804968106        8.15801498214405
H            4.47657125629530        8.52869353649562        8.66730281428151
H            3.77399662865413        9.73365048539749        6.65198579862640
H            5.20539631201094        9.17606795411060        5.75341629007894
C            5.38506680352277        3.71440381016555        7.58283274861693
C            3.16745874378454       -6.16413769691478        0.77282619988855
C            7.85543416213166        3.85675281263281       -4.36418803778975
C            5.35043576631735       -0.96907740086157        1.30118310666944
C            5.34003258297760       -0.31505797171381        2.53085974404149
C            5.79493311587558        0.99819848898391        2.63455174621670
C            6.26270630847060        1.65641612271916        1.49976667391211
C            6.27684040579515        1.00937282752349        0.26541713600369
C            5.81936291089787       -0.30267434565027        0.17041399984377
C            4.85708327900771       -2.35201970293994        1.18269512643680
C            5.50359529856242       -3.28612113255889        0.37094311197577
C            4.95619904585040       -4.55092684272558        0.23996015669345
C            3.78291461898915       -4.86173635395239        0.92932680446443
N            3.18124125459876       -3.97771860719623        1.73775641737028
C            3.70064824161785       -2.76588757619512        1.85720460000704
C            5.76460731737114        1.68212792290145        3.93894970849486
C            6.11348543439497        1.01601160080136        5.11532349665627
C            6.00126776096741        1.68585086833267        6.32165585746792
C            5.55372993881096        3.00803607033331        6.32900234992663
N            5.25285839062442        3.66041313094570        5.19722393692431
C            5.35323027290958        3.01750118660093        4.04426530460832
C            6.76235666336347        1.72243156780402       -0.92861777522171
C            6.09654413916623        1.61113508571763       -2.15648257789377
C            7.88096965883133        2.55586209340463       -0.87041537945780
C            8.25284117543134        3.25631859070213       -2.00509397484368
C            7.51031359862099        3.10125332853896       -3.17687698647177
N            6.45805080164344        2.27350513915219       -3.24434783924074
H            6.42216864968930       -3.04127603154796       -0.14015348941699
H            5.43063293798436       -5.29080155301395       -0.38630449031392
H            3.15267303757671       -2.08092406795184        2.49089873423773
H            6.47871947592151        0.00058834023372        5.09463217523286
H            6.25887975498263        1.19393410951519        7.24710582051973
H            5.05990168510730        3.57862864440004        3.16654685742439
H            5.21602276286626        0.98973837794371       -2.25557530758652
H            8.46043439247704        2.65033993767717        0.03515224696351
H            9.10890807617838        3.91335469223957       -1.98702010731597
H            5.54012806801008        3.14332462014646        8.49971604758548
N            1.34582918476165       -7.81741774748351        3.76912524848862
C            2.23752392830794       -7.84810665941764        4.97065339870863
C            3.29030940526548       -6.73395383054549        4.84117864087989
C           -0.10348758228054       -8.03236096655736        4.07386935157803
C           -0.74719464074560       -6.67955977773689        4.42324405881883
C            1.85319208456806       -8.61179554926508        2.60668204984596
C            1.59909845033327       -7.82054386769334        1.31203925321133
N            2.61240658478515       -5.48112666485066        4.58868899341809
N           -0.45433069034323       -5.73880770514244        3.36385071481399
N            2.15665206872254       -6.49423638207130        1.46323065938284
Mg           1.49529442234458       -4.79274993937246        2.77236683931428
H            2.70748401847068       -8.82794284972690        5.06987851275893
H            1.63154525105990       -7.67423781463826        5.86318870705613
H            3.88357688935932       -6.71089365209060        5.76246768070721
H            3.95889999316128       -6.93459533336264        3.99821707659327
H           -0.21848629921968       -8.74863772123350        4.88905089927314
H           -0.59093104353513       -8.44935566798704        3.18923982917008
H           -1.82351992517172       -6.83472674182476        4.56037605226137
H           -0.32849823403371       -6.28476357405886        5.35414690840932
H            1.37070424300308       -9.59008619420719        2.57534258599700
H            2.92719820856343       -8.77067551880013        2.73092676919995
H            0.52483938899182       -7.71918871394100        1.12875122281881
H            2.04727253818968       -8.37092822343046        0.47683009507178
N            7.37590401528076        2.27850652979032       -7.87362632055570
C            8.30987245920903        3.42283732660126       -7.63360003239157
C            7.66007101487799        4.39729581731820       -6.63643315275718
C            8.04704044035986        0.94291995889419       -7.94601896818962
C            8.17596105220765        0.37100483853487       -6.52388341512906
C            6.37257922674948        2.52178466609018       -8.95701735601790
C            5.01115455677102        1.96021902726361       -8.51265096389250
N            7.25440209517184        3.65598817067626       -5.46223566429512
N            6.87247377298498        0.38909829916262       -5.89664809696340
N            4.68469029940764        2.50725848502563       -7.21373065082767
Mg           5.62607353216005        2.12710735357435       -5.21107755412246
H            8.55128183508966        3.92011202521760       -8.57442844914957
H            9.23981112713044        3.03546770687860       -7.21001370557917
H            8.38337859701226        5.18743113209646       -6.40448576362624
H            6.76814131259511        4.85634347320783       -7.07405984116585
H            9.02216269255464        1.03340552287111       -8.42729825962376
H            7.43352064953089        0.27291337098054       -8.55339646523312
H            8.59303055225326       -0.64013097457244       -6.59470494265970
H            8.85144268248787        0.98729933687487       -5.92237926783726
H            6.70402663396248        2.06551027454304       -9.89120681982630
H            6.28614036369008        3.59868937913693       -9.12139844170487
H            5.05757243036901        0.87063633504083       -8.42107307855994
H            4.26645262506705        2.21696175119057       -9.27476225366665
N           -7.53864147292629        5.19786796657302       -1.30669361095856
C           -7.42035256852277        5.86290144480325       -2.64208960870879
C           -5.96928566466453        6.33381488481654       -2.83954796349210
C           -8.38264466481225        3.96201499893856       -1.30858327970236
C           -7.50363722833975        2.75721616195410       -1.68586117886364
C           -7.82497949620948        6.13651261694256       -0.17681701466325
C           -6.98275237641691        5.72313705533754        1.04234357526824
N           -5.08311296228273        5.21317670289765       -2.61229379000620
N           -6.34894210841078        2.73433360001812       -0.81461885667878
N           -5.59771802627342        5.62303660807810        0.63663138479331
Mg          -4.59254482143414        4.13094780643885       -0.70988412837611
H           -8.12119147800738        6.69612950321269       -2.71500035447473
H           -7.67709236716431        5.13941554698105       -3.41977847258960
H           -5.87445318256612        6.74465902418396       -3.85123252858783
H           -5.71846225524471        7.11749298241190       -2.11782293254881
H           -9.21927568842735        4.07427615275172       -2.00011463566178
H           -8.79260320979292        3.81388514858535       -0.30643948010389
H           -8.10992410612784        1.84795283839874       -1.60241499523343
H           -7.14971246599847        2.84891279034815       -2.71741861292093
H           -8.89061492046722        6.13480192152879        0.05804203550737
H           -7.55018804974419        7.14912382840436       -0.48222604088129
H           -7.30011936967101        4.74375230445184        1.41363405033159
H           -7.13486967908985        6.46510811314127        1.83465854195122
C            7.06399755637621        6.84609945611875        4.07745533584437
C           -4.76034628174040        6.46673472917292        1.07752928839405
C            3.72355778268247        3.32763865487566       -7.11063167748723
C            0.68003571744422        6.07239148077048       -0.43125766980270
C            1.67509176484537        6.33100165265897        0.50974311868515
C            3.01674903959656        6.14999666763607        0.18274465501650
C            3.36174962852910        5.70806462018396       -1.09328773422376
C            2.37367041980497        5.44894362134302       -2.04004311432692
C            1.03349190462405        5.63248886901656       -1.70459221825139
C           -0.73599137642086        6.25287727888941       -0.06737403138269
C           -1.15402452632789        7.33724101296160        0.70629910146223
C           -2.48553330701931        7.42094726717893        1.07624674029643
C           -3.37308429423622        6.42665103805976        0.66133166656888
N           -2.98005185956794        5.40346475331620       -0.11048093204397
C           -1.70599892058000        5.32114209603732       -0.46055708315035
C            4.07312205743825        6.40938794438062        1.17611569882313
C            5.26948144480031        7.03217983327256        0.81505518160025
C            6.25763343132411        7.18882226168862        1.77182611745142
C            6.02789273416089        6.73251015981355        3.07085921340267
N            4.86572614428814        6.16778668921352        3.42815172482526
C            3.92390661326681        6.01026935526338        2.51098862612115
C            2.73263283575002        4.97259799185802       -3.38700285716833
C            3.73384700116932        4.00925615501667       -3.56893246261060
C            2.06904343505799        5.44098950576507       -4.52263883662923
C            2.39969686642612        4.90911242170192       -5.75728010125102
C            3.39264584594527        3.93113938274651       -5.83557820295144
N            4.05593578633510        3.50681865150872       -4.75069417210557
H           -0.46199070683013        8.11009230226532        1.00429773517972
H           -2.83618051261005        8.24598680406784        1.67718342527659
H           -1.43669408746020        4.45535244583759       -1.05133569621008
H            5.42647987594137        7.40124511330943       -0.18686461055894
H            7.19502976424821        7.66020137712756        1.51891476342562
H            3.02257826687160        5.51187214210518        2.84368337204490
H            4.27238406323142        3.60230529640967       -2.72297002899065
H            1.31874377983889        6.21370692547411       -4.45220079214930
H            1.89804047868004        5.24686440418158       -6.65119996220297
H            8.03603266204811        7.21851956888507        3.74985429221593
H           -5.04515363428232        7.24966937557255        1.78236809736795
H            3.11146072921361        3.61154410880198       -7.96827440101784
C            2.58470381960107        7.59864760912029        6.16525290729119
C           -6.23560818513327        1.80477669443530        0.04002507568608
C            2.61553598209871       -4.58295937822247        5.48350088421060
C           -1.71010235883487        1.64144908301809        3.43474448474204
C           -1.12171924898660        2.81802697799681        3.89225439194521
C            0.04365065874375        2.77228757757238        4.65542548033655
C            0.61962391550344        1.54132184894309        4.96015423700832
C            0.03624972015625        0.35925083555813        4.50753898551351
C           -1.12759736816833        0.41376619272186        3.74447753448360
C           -2.93454480670811        1.68424147457592        2.61685685094142
C           -3.96337553942984        0.75923066468475        2.80435785202744
C           -5.06205037765101        0.80123156800399        1.96311350372999
C           -5.11729407369414        1.77109267471184        0.96071671308901
N           -4.14731467045974        2.68284850395640        0.80279219249569
C           -3.09280172919915        2.63753923501622        1.60206603672007
C            0.66358452318248        4.02540175807231        5.11947440048122
C           -0.11096956355006        5.08814361636212        5.58839405792353
C            0.51877610738040        6.26848357388196        5.94475757870606
C            1.90766692438292        6.35990082123547        5.83872552012026
N            2.65581317777352        5.32819153455686        5.42276375508958
C            2.05272824495453        4.20280733084579        5.07295371987168
C            0.66218565849316       -0.93516188387643        4.82829701024599
C            0.76165179276484       -1.94696150249000        3.86408215003221
C            1.20430228288327       -1.18572674104717        6.09029363177951
C            1.84016345146436       -2.39443045440638        6.31699572010959
C            1.91373790027760       -3.33096770899262        5.28450861475001
N            1.36316706715344       -3.10580364976604        4.08318612776681
H           -3.91876011454906        0.02786370367535        3.59683039869631
H           -5.86925380476735        0.09447298832713        2.08052891012099
H           -2.32141766749979        3.37049649601154        1.40408048892950
H           -1.18188047714093        4.99688455176509        5.68723136386736
H           -0.05537695149228        7.10892354680751        6.30375956861689
H            2.69960725927705        3.41692385057168        4.70535132653988
H            0.37119204278262       -1.80097929832956        2.86532359518911
H            1.12316597823526       -0.46167853312113        6.88656051695631
H            2.27364851570279       -2.61290425172010        7.28093789889644
H            1.95820757302548        8.45801760200005        6.41003263786998
H            3.14177342164908       -4.71232310914594        6.43075451318843
C           -4.44361318026945        4.72032033918269       -3.58980927063147
C            6.28783267810091       -0.70863202743482       -5.65062663457350
C           -1.39570677407905       -5.33097095854089        2.61892287113603
C            1.20871568355217       -0.68908185172788       -3.15370514434128
C            0.29159414989046        0.32542322040465       -3.41751937170475
C           -0.92057373931034        0.37508029400719       -2.73146858661690
C           -1.21264715552462       -0.59699014436327       -1.77777840643175
C           -0.30094145521840       -1.61617768573114       -1.50860693484567
C            0.90826100826458       -1.65847481157110       -2.19841709372041
C            2.49836510619641       -0.73780989992607       -3.86400323094421
C            3.04202010092741       -1.94817574927414       -4.29846421162866
C            4.28932246799192       -1.94374006377408       -4.89913328536680
C            4.96279233795866       -0.73235436275832       -5.06481739515722
N            4.42656323474131        0.43464439271176       -4.68055398144367
C            3.23756263943967        0.42938218160815       -4.09834416626663
C           -1.87607328596950        1.46092886294219       -3.01110169644869
C           -2.10929499158573        1.90462732112866       -4.31418573794121
C           -2.96523520818199        2.97444994336496       -4.51299891049524
C           -3.58006618091120        3.57066743995290       -3.41071192139291
N           -3.38593364567857        3.12191630993210       -2.16250572284275
C           -2.56024743672612        2.10478974663866       -1.97151927570548
C           -0.61840547080792       -2.63120060648396       -0.48931736023409
C            0.35395172384759       -3.07086484449790        0.41883728040874
C           -1.90301073898164       -3.16583322598010       -0.37367903767809
C           -2.16355568176524       -4.06611201200140        0.64525475929087
C           -1.13574058786318       -4.42386125938769        1.51934441378397
N            0.10698727516243       -3.93881788083811        1.38753859316048
H            2.50197407082085       -2.87567297286885       -4.18441409089943
H            4.73677177177182       -2.86513539967077       -5.23917505414812
H           -1.64579487987610        1.42075551027055       -5.16040874226464
H           -3.15867046099632        3.34346072642310       -5.50859712661520
H           -2.40827091614379        1.80998970502758       -0.94127545456353
H            1.36260298545126       -2.67989611427280        0.38442985712205
H           -2.68388544835212       -2.89864331513497       -1.06923443022517
H           -3.14900590153974       -4.49024883005706        0.76257128547398
H           -4.51540427444741        5.13590643982900       -4.59630393437092
H           -2.43026475105880       -5.64289928827349        2.77152729428758
H            8.65031214573768        4.59813525581932       -4.26746875736926
H            4.99199912098120       -0.83157532265822        3.41091273353433
H            6.62962836527794        2.66723726492659        1.57802696513759
H            5.84125368256606       -0.81166360888387       -0.77982126680765
H            1.40443859537850        6.68683232495168        1.49089391907328
H            4.40061416382941        5.58123189305185       -1.35258216363664
H            0.26751207233382        5.44595805990837       -2.44005543470181
H           -1.57732014972819        3.76908887538152        3.66760966692583
H            1.51324501202266        1.50064289359917        5.56211980043314
H           -1.58971102687897       -0.49883811502323        3.40360033967101
H            0.51302540828746        1.06855270730135       -4.16673358115054
H           -2.15527053761241       -0.57068844535170       -1.25506083794663
H            1.61044213386675       -2.45306801951155       -2.00337745855665
H            3.61268906415524       -6.83940484526982        0.04022142409555
H            6.75210420095287       -1.67204624625009       -5.86784608961220
H            2.86992522410215        1.39340574909733       -3.77167516032447
H           -6.96763362359156        0.99929287907646        0.11839158124327
H            5.66902349541754        6.93190294543498        7.04004896039238
H            1.39302459372892       -6.83265947783392        3.44309396253834
H           -6.58015507945150        4.84981191080581       -1.11054199779519
H            6.80647846784708        2.22953299402634       -7.00659515265591
