264
 energy: -394.397664407595 gnorm: 0.000072835286 xtb: 6.6.0 (83090be673e2468c27fcd74d519548d8d51bd8df)
N            6.22479175576622        7.89042869417889        8.00358990880308
C            6.64084514237839        6.93891062976382        9.07781165004154
C            5.68338468405517        5.74095375543845        9.13574237885478
C            7.38014572871420        8.58056417293742        7.35425770657911
C            7.98591754409793        7.69628139507674        6.25611597946072
C            5.15451135487761        8.83542926306566        8.44403866689125
C            4.22254673479641        9.17364207985892        7.27294017928574
N            5.63827368573712        5.09240645233077        7.84770833788471
N            6.96589357896804        7.34613018626895        5.29769851204804
N            3.66126273562469        7.95789626187400        6.73590766594799
Ca           4.89814083191096        6.08803109870744        5.73907752400837
H            6.66937020213287        7.45765819372774       10.03873190714084
H            7.65040703431732        6.57968002078167        8.86108197133805
H            6.02470593544629        5.06940160078273        9.93549810803806
H            4.66656493958105        6.07019604031956        9.38274781830380
H            8.13081754846572        8.83150811901257        8.10713284946575
H            7.02878588177354        9.51441128330387        6.90740834405653
H            8.82404959074183        8.24183063266418        5.80131777254650
H            8.38189535749861        6.76680916886425        6.68331667385469
H            5.60800127738291        9.74141269965805        8.85232691875318
H            4.57129228025686        8.36429204980361        9.23987071379862
H            3.45436180770615        9.86954311118680        7.63712610578779
H            4.77654341869604        9.67396083312877        6.46925345904576
C            5.90921843087608        3.85745212995757        7.75725737659840
C            3.72002096470754       -6.10247490694458        1.01489518563593
C            8.38005456416476        3.91033003086381       -4.24907897344036
C            5.45509897563330       -0.71205742812015        1.34930310001501
C            5.42676196796076       -0.08716866888326        2.59387633408163
C            5.87230973865369        1.22533367727429        2.73123844463151
C            6.34068072211584        1.91565405094867        1.61547235145584
C            6.37178820610724        1.29633042576128        0.36811378778371
C            5.92508319043510       -0.01674072855666        0.23782844726249
C            5.02532768661514       -2.11500680307999        1.22001953175518
C            5.76633161612186       -3.02952097563371        0.46944882170496
C            5.33344854811508       -4.34232932433996        0.39673143075804
C            4.16952484313024       -4.71848495386914        1.07440884506781
N            3.44964847572549       -3.83710537669239        1.78424946885208
C            3.86508176679060       -2.58227278527797        1.85358225400626
C            5.88169043095618        1.86863032432615        4.05654265914345
C            6.31727632339570        1.17916354623755        5.18971040819564
C            6.32011876893425        1.83128084297976        6.41074204985137
C            5.89238369915890        3.16088981438045        6.47826294640602
N            5.46503810069214        3.82088646639703        5.39169008625995
C            5.46036634218271        3.19520713363166        4.22526094894009
C            6.91045594813354        2.00984510494871       -0.80261839736848
C            6.27965303688727        1.93899724393189       -2.05289207694719
C            8.07608781913116        2.77230252574256       -0.70832739183427
C            8.55545394642560        3.40571342446178       -1.84190629462123
C            7.86476479465261        3.26451027273597       -3.04969799808679
N            6.73753997241736        2.54313658644814       -3.13810748479835
H            6.67775803501840       -2.73470053356502       -0.02780597763391
H            5.89496429248082       -5.07128330206517       -0.16729395655216
H            3.23497972787753       -1.90667505424958        2.42424786031181
H            6.67292365430522        0.16245064572583        5.12167382839545
H            6.66102798380950        1.32291762093482        7.29967599053955
H            5.08414663430083        3.76857441436328        3.38350460872753
H            5.35339058515193        1.38585979425470       -2.17563791307543
H            8.61710935067639        2.85110813013881        0.22221634054769
H            9.46065691119226        3.99180222779399       -1.79773251955670
H            6.17684853004184        3.25816445328638        8.63199588061987
N            1.42456125650900       -7.75096847407632        3.91850190083152
C            1.90270836484169       -7.73279084047279        5.33392886167958
C            2.95075956208412       -6.62980205361014        5.53239279463420
C           -0.00961816866305       -8.15048065000119        3.79257059633416
C           -0.92593913348010       -6.94261872337175        4.02836584604095
C            2.32603698146163       -8.51979292524168        3.00827760302880
C            2.33222840494935       -7.89682129320820        1.60601488602658
N            2.39415481514455       -5.35636770841539        5.14471223322981
N           -0.58887159214080       -5.88803235439072        3.10310219621313
N            2.72990949195819       -6.51254324080827        1.69174441510027
Ca           1.57260133809710       -4.72323883363604        2.90939694463287
H            2.31474852733595       -8.70966235893150        5.59695238809604
H            1.05182835171405       -7.53983728589701        5.99268618683268
H            3.27205159676945       -6.64871705104548        6.58283088787131
H            3.83252638864389       -6.81718906257817        4.90748459362126
H           -0.23341429494320       -8.94989154505492        4.50259476807458
H           -0.18201751873179       -8.53914833570155        2.78542908195795
H           -1.96703448892080       -7.27808630680780        3.92571085350038
H           -0.79702577256644       -6.55298159672200        5.04564515692361
H            2.00517770298099       -9.56313225884918        2.96687774270862
H            3.34128177365561       -8.49751292577629        3.41331743878681
H            1.32978657169525       -7.93222361425948        1.16201964875063
H            3.00400405575749       -8.49113134737138        0.97152771895362
N            7.53627561998666        2.52941476000822       -7.96605786020125
C            8.75258794513109        3.32379115079845       -7.61698970362273
C            8.41998412864765        4.37190439857834       -6.54683352366011
C            7.84805239939188        1.11201799292582       -8.32114262398571
C            7.97514629058238        0.25743756387830       -7.05321032951340
C            6.66728854836891        3.20669838868536       -8.97515403953219
C            5.19068060309067        2.87555185178458       -8.72154132043389
N            7.85701252108434        3.72173276318447       -5.38817584529465
N            6.75976833864254        0.35085063307806       -6.28148463402171
N            4.83131498193429        3.25887031072820       -7.37782179378764
Ca           5.78864977229106        2.38631592310169       -5.29839000385666
H            9.15140691857528        3.80121343356159       -8.51490059335235
H            9.51850303375590        2.64701981079766       -7.22905529623782
H            9.33902837190402        4.92727354458542       -6.31471585570712
H            7.68094470482387        5.08859129458291       -6.92538711515676
H            8.76837715886039        1.07282194797446       -8.90821477826137
H            7.03873609613206        0.71507933425296       -8.93984278877831
H            8.20528674770777       -0.77298670852793       -7.35681603827535
H            8.80045682986398        0.61607451686311       -6.42578379994533
H            6.96451033815589        2.90260731624606       -9.98126139600683
H            6.80959085160339        4.28780868123401       -8.89631749309512
H            5.01274432255706        1.79795216861696       -8.82369066865726
H            4.58964071456863        3.39089998374268       -9.48322872048336
N           -7.62412911313485        5.55267850842608       -1.24281962514043
C           -7.66384332763684        5.82254831128496       -2.71190217225103
C           -6.28046638289184        6.25418503802459       -3.21662364304022
C           -8.55331071961039        4.45964507626441       -0.82527239675796
C           -7.90025030939877        3.08805574523523       -1.04167221758726
C           -7.77104849484199        6.79002053788616       -0.41831539187327
C           -6.95964892996164        6.67091398342234        0.87865426481133
N           -5.30815629940356        5.23857748353035       -2.89290278846279
N           -6.65121352758991        3.02614637585831       -0.32224286976458
N           -5.57622774351067        6.41097614973596        0.56199116345605
Ca          -4.68995275286118        4.47303791998496       -0.65216954992034
H           -8.41068403030638        6.59051477961715       -2.92575093496330
H           -7.96476305105836        4.90908328901086       -3.23188516744050
H           -6.35389510186060        6.44045759671812       -4.29689112256091
H           -5.96645779906451        7.18778548073547       -2.73382655428235
H           -9.48764407899104        4.53591459360077       -1.38602065888456
H           -8.78838302710630        4.58020297179568        0.23563051779951
H           -8.61232299977997        2.31577198978606       -0.72002526376764
H           -7.68607559884609        2.92572145186625       -2.10518443120575
H           -8.82707626923068        6.96356819666208       -0.19959286174613
H           -7.40296514687180        7.64435701657196       -0.99264743688082
H           -7.32900002250490        5.83846234988966        1.48997155539795
H           -7.09525614279099        7.59762914903735        1.45300568570443
C            7.14886788304217        7.59396857061368        4.06813886336347
C           -4.67461724940240        7.17933725359839        1.01297050790261
C            3.85925345786910        4.05050784184657       -7.19089908319840
C            0.78161056601311        6.35921095793454       -0.30682147319701
C            1.80539624565476        6.60452973012120        0.60501241346476
C            3.13538281417167        6.41535197731844        0.23616123366839
C            3.43915004030103        5.97281214913598       -1.04899902191516
C            2.41985216333484        5.72726453369132       -1.96622054667620
C            1.09216544113176        5.91844113771134       -1.59136986089792
C           -0.62140857158945        6.59799990696144        0.07273478221359
C           -0.99052562379362        7.73566284010162        0.79278253647837
C           -2.32442943368808        7.92263653765760        1.11214905215221
C           -3.26649432704749        6.97379515131072        0.70270871685663
N           -2.91108347407976        5.87521432893231        0.02032520213012
C           -1.63485827688260        5.69628487680942       -0.28193121601281
C            4.21344362166744        6.71731936286636        1.19304995607552
C            5.35963118740645        7.40915684217986        0.79743505924261
C            6.33239562413143        7.68939548171197        1.74170617310549
C            6.14191369096443        7.27761568293358        3.06446347441726
N            5.04817236139101        6.59931562714292        3.44173643528157
C            4.12021340278371        6.32982351416192        2.53726339603608
C            2.75052766283775        5.30353934466850       -3.33767890630011
C            3.72760198980834        4.32817388433058       -3.58219266149531
C            2.10912834145599        5.86850862384854       -4.44143432863775
C            2.46932696139248        5.45106799028676       -5.71112197048953
C            3.46532422000884        4.48027619307756       -5.85626633587443
N            4.07437925861661        3.92953281509281       -4.79585290884926
H           -0.25999856868789        8.47745438321112        1.07738581587983
H           -2.63645410553774        8.79896709197401        1.65941898920456
H           -1.40071608704634        4.78073628448726       -0.81667369490473
H            5.48263952246535        7.74947385622278       -0.21931235884769
H            7.22226519738917        8.23298035008769        1.46320488365082
H            3.26650612242352        5.76054461946058        2.89251815515697
H            4.23660599599205        3.83500954624631       -2.75947276200391
H            1.36174767059311        6.63759804413800       -4.31935175116073
H            1.99537806371951        5.87943132092842       -6.58104301435289
H            8.06446884366890        8.06773550396797        3.70333342306352
H           -4.91088018001418        8.04007614771081        1.64482763371775
H            3.27503438014698        4.45556648569713       -8.02194908702571
C            2.40270048365831        7.83105784687837        6.65576939034124
C           -6.44600212286628        2.08113413898323        0.49722838951872
C            2.40039706966579       -4.39363394520000        5.96912116977732
C           -1.65093821008521        1.83871255664878        3.51889544748082
C           -1.09366950983422        3.03890443987866        3.95473306430961
C            0.06898736468274        3.03652871951119        4.72143621437678
C            0.67756646032657        1.82706464498990        5.04931346207668
C            0.12326074661438        0.62350782391074        4.62016651278811
C           -1.03830679327914        0.63286767155681        3.85117864112548
C           -2.90050714663741        1.84895775767777        2.73939584117744
C           -3.92736957811088        0.94120419986377        3.00485090352319
C           -5.09070345543757        1.00865123780084        2.25758307888185
C           -5.21144989445631        1.98537310791134        1.26403668904082
N           -4.21974865022711        2.84837085223195        0.99873640036617
C           -3.10591566606953        2.77920191764842        1.71054980567971
C            0.63466815753314        4.30452145386569        5.21297847806227
C           -0.18555350915670        5.30412315265289        5.73911850842712
C            0.39576545885670        6.47074249463553        6.20489879964500
C            1.78517983647728        6.61625068622148        6.14204317394965
N            2.57274479602170        5.66136607045033        5.62547279186005
C            2.01497164377570        4.54781589878945        5.17679358239650
C            0.74097901780744       -0.65720707690580        5.00472819982663
C            0.88392929415708       -1.70136177676611        4.08012814604126
C            1.19677160888436       -0.87732548191758        6.30566863687644
C            1.75210304307241       -2.10537380161513        6.62138794646667
C            1.83766436703526       -3.09262608938311        5.63467136380080
N            1.41105465135386       -2.87756122600573        4.38145891094812
H           -3.83721468610109        0.21195585702385        3.79528777350468
H           -5.90297509193045        0.32461157185401        2.45030949833396
H           -2.32751054500812        3.48576648431523        1.43852087889327
H           -1.25398840873283        5.16910653319703        5.81015993116199
H           -0.21552147112576        7.25467187303732        6.62514895384842
H            2.69500136812816        3.81754409674856        4.74860906557291
H            0.57458347912933       -1.57217818338434        3.04739610372061
H            1.09892337584885       -0.11877991061376        7.06721489598834
H            2.10344095703320       -2.30390512844737        7.62238069319582
H            1.71995888545345        8.62162691494255        6.97951432255026
H            2.81899596971198       -4.49575140637993        6.97425629779015
C           -4.60526165386661        4.72640478591700       -3.81496628285565
C            6.14414824321666       -0.70721839855597       -5.95288868723412
C           -1.49100215434402       -5.39402045939276        2.36230698461187
C            1.27332776739244       -0.47327710374482       -3.05588740842449
C            0.38220388241406        0.55714622389537       -3.34689629902578
C           -0.83901394465122        0.63786589174081       -2.68186371512530
C           -1.16557547895828       -0.31461060841907       -1.71908961238210
C           -0.27890931570325       -1.34741651698660       -1.42387670167662
C            0.94150410184173       -1.42150610930955       -2.09128895382271
C            2.54557693066202       -0.57846556694575       -3.79024771213251
C            3.00567618718559       -1.80903756105158       -4.26262047507934
C            4.19712829338778       -1.85333732827822       -4.96559316300019
C            4.90550580400845       -0.66838197888159       -5.18804085410437
N            4.47188393090470        0.51192437300784       -4.72144453316198
C            3.33340830151522        0.55251200775780       -4.04722540661281
C           -1.79648095485403        1.70601296483070       -3.01719926148516
C           -2.04717130245062        2.06071210548678       -4.34389573914647
C           -2.96684948732759        3.06126319689335       -4.60734481746003
C           -3.62277787630516        3.68639116343619       -3.54225744338568
N           -3.37534593628471        3.35283138939746       -2.26702046309844
C           -2.49371574480929        2.39780351710907       -2.01661923740791
C           -0.64073202069349       -2.38058558611095       -0.43849256104612
C            0.29002523280015       -2.84807742556428        0.50031981895802
C           -1.92008488649668       -2.93870892745083       -0.41473538302632
C           -2.20337929559097       -3.92424420250177        0.51500452274098
C           -1.20355470063586       -4.33879797122969        1.40052676649066
N            0.02156055704196       -3.79316682606518        1.38748480834623
H            2.43617384725421       -2.71325059639784       -4.11140494880629
H            4.56880701730474       -2.79039379442887       -5.35095955711752
H           -1.55651410144779        1.55204872832329       -5.15959537041882
H           -3.18536489085409        3.34696163015105       -5.62492155062937
H           -2.31504945920986        2.18313666555654       -0.96740506383445
H            1.28929581141805       -2.42541900005723        0.54820441535487
H           -2.67547930666234       -2.63312286538065       -1.12244596287304
H           -3.18181452036861       -4.37859206562661        0.54728729045124
H           -4.70814907004014        5.03362185632634       -4.85946683565061
H           -2.52646424649535       -5.74362537155024        2.40124556382834
H            9.25136001024470        4.55714196544673       -4.11323032947121
H            5.08153531342259       -0.62896489479840        3.46048434148077
H            6.70410879365001        2.92592493047636        1.72062298513496
H            5.96574995518604       -0.50719211749314       -0.72215201917878
H            1.56664722188772        6.96520787301195        1.59328679279916
H            4.46954476729630        5.84338543589113       -1.34099501801896
H            0.30372830616181        5.74607079748288       -2.30727114501304
H           -1.57653528816736        3.97422081037821        3.71849928263521
H            1.56793759382638        1.81909545915432        5.65848254897502
H           -1.47981219786908       -0.29803869794969        3.53156207620866
H            0.62710778012389        1.28296377927567       -4.10662655708210
H           -2.11881610910763       -0.26747526059289       -1.21635654199531
H            1.62398576889885       -2.22935925779465       -1.87835063691544
H            4.28837648684926       -6.76837338279816        0.35954239421866
H            6.50636439492741       -1.69913897154955       -6.23716719154348
H            3.03924120650081        1.52922304882479       -3.67474902562103
H           -7.19055359294911        1.30097906998923        0.67869104042077
H            5.79423076564057        7.30441001758030        7.26001760763210
H            1.47094864444448       -6.76406420032450        3.59337453950336
H           -6.66660386041490        5.19666963112894       -1.04764305623088
H            6.97130633434061        2.48295286794348       -7.09400514352647
