264
 energy: -394.573193416270 gnorm: 0.000057640388 xtb: 6.6.0 (83090be673e2468c27fcd74d519548d8d51bd8df)
N            6.21384698209910        7.68050516971604        7.98406861590870
C            6.86639787510589        6.73722460567997        8.93337316089859
C            6.05683004691098        5.44763362035471        9.08269058821176
C            7.20270061125869        8.55776104453702        7.29941126680780
C            7.86408454700628        7.84323405774068        6.11946757358985
C            5.12857568140331        8.46503139150864        8.63493776702450
C            4.04542727569278        8.86092518014113        7.62946033369300
N            5.94790014662731        4.80509269363232        7.80377156537972
N            6.86067838865804        7.47017364782824        5.16346752264949
N            3.48083143846006        7.67622129643758        7.04834919704999
Na           4.75955590501154        5.77042143404624        5.51314892128108
H            6.98992232582867        7.22756026272177        9.90117089526786
H            7.85476592599101        6.48055977269327        8.54844784535698
H            6.54053879247443        4.81451530828574        9.84073789748895
H            5.04090706124753        5.66821419123907        9.42539213783143
H            7.95514726376600        8.88261284056166        8.02096502336541
H            6.68410427524077        9.44005272523369        6.92040431937572
H            8.63456429771916        8.50417464057033        5.69625347109444
H            8.35439597541904        6.92292024284431        6.45203087598569
H            5.55736915640741        9.35188775842022        9.10614703428032
H            4.67002487123221        7.85000972421715        9.41105633541304
H            3.29940427924459        9.48410740155230        8.14369703394423
H            4.47418557322593        9.45144009190824        6.81370603920732
C            6.16572519756823        3.56487765385623        7.70742019861841
C            3.91056919991679       -6.38453278828956        1.01612723300105
C            8.61855557061794        3.55521768901835       -4.27919803525928
C            5.61127080993326       -0.99094609782294        1.28551559017706
C            5.57762701503227       -0.38289568179430        2.53779345119398
C            6.02515856657464        0.92455485712709        2.70014390214548
C            6.50231092313341        1.62834703416987        1.59737292778980
C            6.54057792560770        1.03018867111754        0.34173125109160
C            6.08978063855659       -0.27858419855763        0.19044585681835
C            5.17778207449991       -2.38798091246435        1.13808303755484
C            5.91575017589017       -3.30521507392518        0.39048162768114
C            5.48991865130152       -4.61920060351241        0.33104579415657
C            4.33399976905276       -4.99220304958810        1.02261559075307
N            3.60882777580140       -4.10815402079855        1.71045732980923
C            4.01761475776082       -2.85835598039177        1.76333044802764
C            6.03070950062424        1.55248018923115        4.02957764345425
C            6.47018057904520        0.86244503506526        5.15897088874250
C            6.49802555366760        1.51710534630926        6.37621662624995
C            6.08756089230583        2.85160944724078        6.44136493429559
N            5.63918434433818        3.50367033568330        5.36692444934637
C            5.61409087621101        2.87612231689526        4.21030683335221
C            7.08643652442453        1.75243000897266       -0.81634127190035
C            6.45973422835131        1.69868161798137       -2.06630555471650
C            8.26202969406835        2.49665829620474       -0.72336263204376
C            8.75966562343778        3.10844190126257       -1.85881378143153
C            8.07256405383504        2.96278432460216       -3.06730097408862
N            6.92986956803067        2.27859560213265       -3.15007058548548
H            6.82344984469960       -3.00486463535967       -0.11113949190741
H            6.05323696049328       -5.35119330170916       -0.22683427420502
H            3.38466253518079       -2.18479974346661        2.32489451761571
H            6.81299130888341       -0.15851599749140        5.08278405181308
H            6.84936174307607        1.00962421686699        7.26132610274914
H            5.23214877478056        3.45031094377463        3.37712930117288
H            5.52656158050590        1.16612245321893       -2.19024739856428
H            8.79506699809544        2.57080757113706        0.21266840806129
H            9.67651696898634        3.67586374791767       -1.81657095416668
H            6.44796248606901        2.95548015376242        8.57380901661013
N            1.40034238407555       -7.97937686027992        3.86736299954598
C            1.66530217702543       -7.94121805178866        5.33191633174378
C            2.66861672606212       -6.84347991156580        5.69159735761973
C            0.03606031679054       -8.48950906985265        3.55862325664308
C           -1.01785704126234       -7.38927966395196        3.70066620472448
C            2.45555716344635       -8.72452205555254        3.12682353388956
C            2.60904481298203       -8.19911709119649        1.69803738486452
N            2.13931865237166       -5.56786221429448        5.30092360077817
N           -0.70571640857068       -6.31416021280144        2.80249421830056
N            2.96798482502208       -6.81011520950263        1.74084682983146
Na           1.52084156897521       -4.71697897476290        2.80288849536712
H            2.03173067118144       -8.91719348852122        5.65702288356370
H            0.72822061864650       -7.73382557918960        5.85137897817467
H            2.88541280199114       -6.90567660027331        6.76804936259272
H            3.60792574059087       -6.98664683534306        5.14835533845281
H           -0.19350672223006       -9.32825641437351        4.21897655758191
H            0.02253359937599       -8.84826630267854        2.52804488224459
H           -2.00983410332561       -7.82738567613131        3.51772068285792
H           -1.01216698342926       -6.97889890415588        4.71532464488764
H            2.20964992238226       -9.78839849447821        3.12087640195249
H            3.40648367180719       -8.59312376858101        3.64591234231142
H            1.66116714455028       -8.27451162538806        1.15593411387749
H            3.35068826588482       -8.81836060853857        1.17291099647005
N            7.52615052122218        2.32905837769884       -8.05066647048596
C            8.85096902517015        2.90040990047643       -7.68265825390946
C            8.71509393631141        3.95059820129629       -6.57842044092983
C            7.63928264005467        0.92836303967630       -8.54220331757287
C            7.72865985282560       -0.06645779418258       -7.38342414166091
C            6.78999591918295        3.20026865200155       -9.00752656103820
C            5.27552385854000        3.03991957070326       -8.86048601722563
N            8.12136571584832        3.34438331992585       -5.42078598259568
N            6.53651605216589        0.01817767300608       -6.58848555269745
N            4.88723703029709        3.39193915129498       -7.52433605794890
Na           5.60290043960445        2.16057881677890       -5.19988342343515
H            9.31686932713908        3.33352728671701       -8.57003779035435
H            9.48981967006791        2.09520930518555       -7.31600331662682
H            9.70659218242123        4.38147966039011       -6.37743286499484
H            8.05323042630420        4.76167775756495       -6.89809451824140
H            8.51560148150697        0.84381705481644       -9.18823672249994
H            6.75195804849497        0.69127437668917       -9.13162631495858
H            7.89735421856260       -1.07181950043433       -7.79615889109570
H            8.57298691364103        0.17713035301706       -6.73090182147109
H            7.10360116161309        2.96228627414291      -10.02606589973109
H            7.04742851333621        4.24060910157002       -8.80134707223380
H            4.98112595567815        1.99830732775011       -9.02194919976190
H            4.78165279236821        3.65502350862561       -9.62680715472683
N           -7.70805126785465        5.35802395878608       -1.33806179719151
C           -7.85338964665014        5.38768409963943       -2.81951552212442
C           -6.53291183067614        5.75037355144380       -3.50179094011459
C           -8.65557999683887        4.40207345247359       -0.70184799906782
C           -8.12931965169770        2.96699100727147       -0.76693753825348
C           -7.80299152797597        6.71876499699858       -0.74115040225094
C           -6.99518194289573        6.81647256012766        0.55442986499673
N           -5.54193903836270        4.76738539937401       -3.16753437357295
N           -6.87277198332690        2.88926829196116       -0.07764484509853
N           -5.61633797361068        6.53305370143540        0.27403128230003
Na          -4.52882562682361        4.18262419044621       -0.69138233463171
H           -8.63480929072559        6.10048650685765       -3.09064048201618
H           -8.15680880162176        4.39686774235374       -3.16199194583015
H           -6.70718899771400        5.83299321154407       -4.58451803623017
H           -6.16662798278872        6.71718283407658       -3.14262387861897
H           -9.62765397681289        4.47702648546714       -1.19356435455359
H           -8.77717878393292        4.67678537567656        0.34725363926479
H           -8.89110184538173        2.29386601929574       -0.34738956006519
H           -7.95055835768348        2.66944733655846       -1.80496998488683
H           -8.85218982986404        6.96039348698612       -0.55927620724014
H           -7.40066946880011        7.44192570937438       -1.45272269806155
H           -7.34036121158035        6.07392881205877        1.28073000357316
H           -7.14810154024523        7.81441059442251        0.99040692339741
C            7.04770346528120        7.70870246540990        3.93748591584975
C           -4.71631475207771        7.28981100742902        0.73452740786851
C            3.90870042215859        4.16916879278276       -7.34185723795506
C            0.74985090640297        6.44349680620603       -0.47588083522121
C            1.77667668813683        6.67965972709448        0.43271602861169
C            3.10499614915371        6.48619837020915        0.06260443453543
C            3.40173337771546        6.04693042529916       -1.22382866960117
C            2.38164324937453        5.80901637941934       -2.14127122159818
C            1.05765153418678        6.00553296018120       -1.76125392321797
C           -0.65067604183469        6.68360343604376       -0.09842948752139
C           -1.03140961070068        7.83237676599560        0.59408021757569
C           -2.36862581576760        8.02638307471034        0.88647081882819
C           -3.30101721580060        7.06871478013175        0.47774130092768
N           -2.93432733821274        5.95596664623244       -0.16114908814549
C           -1.66011179684278        5.77542773255649       -0.43654669808183
C            4.18071545349920        6.78025577666739        1.02048632805825
C            5.31798879791498        7.49325034229577        0.64293874545184
C            6.27364934826527        7.78624165889174        1.59805111827400
C            6.07273387959453        7.36192937367794        2.91453588009694
N            4.99994821553008        6.65233697089622        3.27000594149972
C            4.09340255576781        6.37521728133319        2.35714960047309
C            2.71148036027986        5.38403409099004       -3.50964155930124
C            3.67403605104700        4.39735865162631       -3.75064426851710
C            2.09466461975420        5.95831042667042       -4.62058188263246
C            2.47623130418063        5.54994148531498       -5.88515723368596
C            3.46806659472622        4.57380758503006       -6.01521618498057
N            4.03938740746826        4.00411458378989       -4.95221910163314
H           -0.29979583785447        8.57532325851062        0.87451924009530
H           -2.69024693263628        8.91430824520892        1.40852613308745
H           -1.41971339204331        4.85222500423589       -0.94593496594548
H            5.44001612902820        7.83892330296368       -0.37259739093944
H            7.15480956838561        8.35036318006028        1.33389094008986
H            3.25115831988254        5.78929015000043        2.69930740639958
H            4.16355664595846        3.89538209883617       -2.92727725927925
H            1.35009786888060        6.73100863342299       -4.50034403777923
H            2.02471675282608        5.99038402508778       -6.76069763167992
H            7.95365475000139        8.20761167722443        3.57415101932318
H           -4.95246124204876        8.17225991995119        1.34042149776960
H            3.34337823420275        4.59826438834390       -8.17723987708842
C            2.22633102062801        7.55756165387102        6.96411203362989
C           -6.66555238605366        1.94918788090012        0.73978368537622
C            2.17295707848353       -4.60224032502727        6.11413780511775
C           -1.85359562995284        1.63347846552388        3.70745504175356
C           -1.30547446444751        2.83614566338140        4.14610056517063
C           -0.14348013983880        2.84386386265994        4.91107316386963
C            0.47469697280752        1.63846527033513        5.23268861721767
C           -0.06702655456142        0.43075697512240        4.80349706561719
C           -1.22952993630412        0.43425364935178        4.03681280127091
C           -3.10104260536427        1.64042748340154        2.92911528402962
C           -4.14186253044715        0.75617026953421        3.21007623330505
C           -5.31132339745554        0.84300507464202        2.47776058071295
C           -5.41893772873194        1.81434935163173        1.47848739137321
N           -4.41174931874081        2.64012991267450        1.18772702283765
C           -3.30032423684665        2.55320172545530        1.88715855703468
C            0.41844573511723        4.10842126988564        5.40772537758628
C           -0.38972402701496        5.09390345587818        5.97324114695350
C            0.20067786112736        6.24061432363376        6.47115722696279
C            1.58930173578953        6.37995796619368        6.39386904930531
N            2.35989564905461        5.45232480532344        5.82246477395521
C            1.79332437754666        4.36218793652783        5.35087403379724
C            0.56251497002983       -0.84367890353154        5.17906094717915
C            0.71421669338908       -1.88052142209751        4.25164704267462
C            1.01862492056037       -1.07655817367772        6.47618302955203
C            1.56648454194232       -2.30802311082850        6.78396400895041
C            1.64442909548043       -3.28611259915452        5.78860596553047
N            1.23238486149138       -3.05529866837026        4.54057012977861
H           -4.05124103338170        0.03249235650631        4.00617235933476
H           -6.13711163012578        0.18083719882708        2.68742233655071
H           -2.51506318146449        3.23988871158752        1.60152619327403
H           -1.45766172886499        4.95438740227595        6.04976435273452
H           -0.40137880590780        7.01053207007113        6.92849867277078
H            2.46437592696927        3.65000445560537        4.89036111841434
H            0.40846530700758       -1.74653946461329        3.22295326991568
H            0.92162418103065       -0.31893278524401        7.23934721272773
H            1.91382959136556       -2.51665424069504        7.78407157990854
H            1.54288793500282        8.33049968508156        7.33424947649619
H            2.58796047119411       -4.70656968008746        7.12335389777335
C           -4.82987010881127        4.26263711989472       -4.08011141915464
C            5.93847993232357       -1.04054298460569       -6.24721447200042
C           -1.61331013622746       -5.82127960446444        2.07563126453801
C            1.10145623083683       -0.88227254929735       -3.30807042580762
C            0.21184097669843        0.14542119575131       -3.61054651743823
C           -1.01308604268430        0.23362487467695       -2.95658380863660
C           -1.34568891096160       -0.71262468176910       -1.99079105536044
C           -0.46497480515569       -1.74468622709151       -1.68237111722659
C            0.75958265161336       -1.82219047232893       -2.34074026188231
C            2.37782384180223       -0.98225145056636       -4.03077353371865
C            2.84878415850404       -2.20181945461177       -4.51595914597556
C            4.03120572650993       -2.22721732033283       -5.23193052662544
C            4.72146958973245       -1.03151285915456       -5.44962443534084
N            4.28883591430014        0.13101551063950       -4.95733316324859
C            3.16228738859872        0.15034653397995       -4.27723825689416
C           -1.96528810615514        1.30096048038074       -3.29707706571720
C           -2.23525731811704        1.64225949979855       -4.62175606858580
C           -3.16855700238395        2.62814975895140       -4.88310501270554
C           -3.81457256814037        3.25477024811100       -3.81377085230404
N           -3.53772824284134        2.94717632604806       -2.54506926338879
C           -2.64967170108634        2.00690547951852       -2.30147037549115
C           -0.82851804693805       -2.76834707819670       -0.69160165605102
C            0.09216428916713       -3.21102414429086        0.26472547109073
C           -2.09409318588927       -3.35357862709328       -0.67722017365669
C           -2.36316234821572       -4.34714384467138        0.24586238349656
C           -1.35976670403294       -4.73865172858482        1.13664952672312
N           -0.15876673182780       -4.15713824747227        1.14426089876548
H            2.28629726818478       -3.11066129685076       -4.36314445209887
H            4.40754726808081       -3.15598069229584       -5.63205444706471
H           -1.74531933678364        1.12749885417161       -5.43463732265965
H           -3.40613286117138        2.89941994219767       -5.90013958108291
H           -2.45776613890404        1.80625412595570       -1.25616576116712
H            1.07747460876552       -2.76934971207935        0.32445244796343
H           -2.84623285694617       -3.05868597426756       -1.39358835608501
H           -3.32984048667380       -4.82621694901832        0.26652588406295
H           -4.94835651738085        4.54446025660119       -5.13282668463688
H           -2.64327871048047       -6.19570052317875        2.09688064736167
H            9.50543344734515        4.18377623315213       -4.13806062199437
H            5.21982404411465       -0.93630759177253        3.39231640685590
H            6.86252085473700        2.63816726512410        1.72071182666205
H            6.12979329885670       -0.75032034784014       -0.77935027143671
H            1.54271061544349        7.03252245016500        1.42544310706215
H            4.43059959866956        5.90722709858382       -1.51808937695273
H            0.26477635644388        5.83373766288402       -2.47299321508937
H           -1.79491293931104        3.76758638608900        3.90598872357051
H            1.37021054269579        1.64000896706835        5.83500660340566
H           -1.65970079583988       -0.50031773636053        3.71086927201373
H            0.46679421415984        0.86925391513342       -4.36942192333334
H           -2.30010884158532       -0.65538185773574       -1.49030298526290
H            1.44117474338265       -2.62673036263525       -2.11111581549081
H            4.48032479358467       -7.04708079153214        0.35433772538636
H            6.29509998839980       -2.03216428331983       -6.54913595512162
H            2.86554433541318        1.11728553888678       -3.89431137334613
H           -7.42394789305382        1.18712192904935        0.95366554022667
H            5.76506566927179        7.10189609721749        7.24808706650597
H            1.43545252896874       -6.99816211515251        3.53026044112605
H           -6.75102422759814        5.00895080608650       -1.13722697784469
H            6.96277619165468        2.29800355430941       -7.17916014401213
